<?xml version="1.0" encoding="UTF-8"?>
<edges xmlns:xsi="http://www.w3.org/2001/XMLSchema-instance" xsi:noNamespaceSchemaLocation="http://sumo.dlr.de/xsd/edges_file.xsd">

   	<edge from="1"  id="1to2"  to="2" priority="78" numLanes="1" speed="19.444"/>
	<edge from="2"  id="2to3"  to="3" priority="78" numLanes="1" speed="19.444"/>
	<edge from="3"  id="3to4"  to="4" priority="78" numLanes="1" speed="19.444"/>
	<edge from="4"  id="4to5"  to="5" priority="78" numLanes="1" speed="19.444"/>
	<edge from="5"  id="5to6"  to="6" priority="78" numLanes="1" speed="19.444"/>
	<edge from="6"  id="outr1"  to="7" priority="78" numLanes="1" speed="19.444"/>
	<edge from="14"  id="14to13"  to="13" priority="78" numLanes="1" speed="19.444"/>
	<edge from="13"  id="13to12"  to="12" priority="78" numLanes="1" speed="19.444"/>
	<edge from="12"  id="12to11"  to="11" priority="78" numLanes="1" speed="19.444"/>
	<edge from="11"  id="11to10"  to="10" priority="78" numLanes="1" speed="19.444"/>
	<edge from="10"  id="10to9"  to="9" priority="78" numLanes="1" speed="19.444"/>
	<edge from="9"  id="outl1"  to="8" priority="78" numLanes="1" speed="19.444"/>
	<edge from="15"  id="15to16"  to="16" priority="78" numLanes="1" speed="19.444"/>
	<edge from="16"  id="16to17"  to="17" priority="78" numLanes="1" speed="19.444"/>
	<edge from="17"  id="17to18"  to="18" priority="78" numLanes="1" speed="19.444"/>
	<edge from="18"  id="18to19"  to="19" priority="78" numLanes="1" speed="19.444"/>
	<edge from="19"  id="19to20"  to="20" priority="78" numLanes="1" speed="19.444"/>
	<edge from="20"  id="outr2"  to="21" priority="78" numLanes="1" speed="19.444"/>
	<edge from="28"  id="28to27"  to="27" priority="78" numLanes="1" speed="19.444"/>
	<edge from="27"  id="27to26"  to="26" priority="78" numLanes="1" speed="19.444"/>
	<edge from="26"  id="26to25"  to="25" priority="78" numLanes="1" speed="19.444"/>
	<edge from="25"  id="25to24"  to="24" priority="78" numLanes="1" speed="19.444"/>
	<edge from="24"  id="24to23"  to="23" priority="78" numLanes="1" speed="19.444"/>
	<edge from="23"  id="outl2"  to="22" priority="78" numLanes="1" speed="19.444"/>
	<edge from="29"  id="29to30"  to="30" priority="78" numLanes="1" speed="19.444"/>
	<edge from="30"  id="30to31"  to="31" priority="78" numLanes="1" speed="19.444"/>
	<edge from="31"  id="31to32"  to="32" priority="78" numLanes="1" speed="19.444"/>
	<edge from="32"  id="32to33"  to="33" priority="78" numLanes="1" speed="19.444"/>
	<edge from="33"  id="33to34"  to="34" priority="78" numLanes="1" speed="19.444"/>
	<edge from="34"  id="outr3"  to="35" priority="78" numLanes="1" speed="19.444"/>
	<edge from="36"  id="36to2"  to="2" priority="78" numLanes="1" speed="19.444"/>
	<edge from="2"  id="2to9"  to="9" priority="78" numLanes="1" speed="19.444"/>
	<edge from="9"  id="9to16"  to="16" priority="78" numLanes="1" speed="19.444"/>
	<edge from="16"  id="16to23"  to="23" priority="78" numLanes="1" speed="19.444"/>
	<edge from="23"  id="23to30"  to="30" priority="78" numLanes="1" speed="19.444"/>
	<edge from="30"  id="outs1"  to="37" priority="78" numLanes="1" speed="19.444"/>
	<edge from="39"  id="39to31"  to="31" priority="78" numLanes="1" speed="19.444"/>
	<edge from="31"  id="31to24"  to="24" priority="78" numLanes="1" speed="19.444"/>
	<edge from="24"  id="24to17"  to="17" priority="78" numLanes="1" speed="19.444"/>
	<edge from="17"  id="17to10"  to="10" priority="78" numLanes="1" speed="19.444"/>
	<edge from="10"  id="10to3"  to="3" priority="78" numLanes="1" speed="19.444"/>
	<edge from="3"  id="outn1"  to="38" priority="78" numLanes="1" speed="19.444"/>
	<edge from="40"  id="40to4"  to="4" priority="78" numLanes="1" speed="19.444"/>
	<edge from="4"  id="4to11"  to="11" priority="78" numLanes="1" speed="19.444"/>
	<edge from="11"  id="11to18"  to="18" priority="78" numLanes="1" speed="19.444"/>
	<edge from="18"  id="18to25"  to="25" priority="78" numLanes="1" speed="19.444"/>
	<edge from="25"  id="25to32"  to="32" priority="78" numLanes="1" speed="19.444"/>
	<edge from="32"  id="outs2"  to="41" priority="78" numLanes="1" speed="19.444"/>
	<edge from="43"  id="43to33"  to="33" priority="78" numLanes="1" speed="19.444"/>
	<edge from="33"  id="33to26"  to="26" priority="78" numLanes="1" speed="19.444"/>
	<edge from="26"  id="26to19"  to="19" priority="78" numLanes="1" speed="19.444"/>
	<edge from="19"  id="19to12"  to="12" priority="78" numLanes="1" speed="19.444"/>
	<edge from="12"  id="12to5"  to="5" priority="78" numLanes="1" speed="19.444"/>
	<edge from="5"  id="outn2"  to="42" priority="78" numLanes="1" speed="19.444"/>
	<edge from="44"  id="44to6"  to="6" priority="78" numLanes="1" speed="19.444"/>
	<edge from="6"  id="6to13"  to="13" priority="78" numLanes="1" speed="19.444"/>
	<edge from="13"  id="13to20"  to="20" priority="78" numLanes="1" speed="19.444"/>
	<edge from="20"  id="20to27"  to="27" priority="78" numLanes="1" speed="19.444"/>
	<edge from="27"  id="27to34"  to="34" priority="78" numLanes="1" speed="19.444"/>
	<edge from="34"  id="outs3"  to="45" priority="78" numLanes="1" speed="19.444"/>
</edges>
