<?xml version="1.0" encoding="UTF-8"?>

<!-- generated on Mon Dec 27 17:04:55 2021 by Eclipse SUMO netconvert Version 1.6.0
<configuration xmlns:xsi="http://www.w3.org/2001/XMLSchema-instance" xsi:noNamespaceSchemaLocation="http://sumo.dlr.de/xsd/netconvertConfiguration.xsd">

    <input>
        <node-files value="ciudad10x10_semaforo.nod.xml"/>
        <edge-files value="ciudad10x10_semaforo.edg.xml"/>
    </input>

    <output>
        <output-file value="ciudad10x10_semaforo.net.xml"/>
    </output>

    <report>
        <aggregate-warnings value="5"/>
    </report>

</configuration>
-->

<net version="1.6" junctionCornerDetail="5" limitTurnSpeed="5.50" xmlns:xsi="http://www.w3.org/2001/XMLSchema-instance" xsi:noNamespaceSchemaLocation="http://sumo.dlr.de/xsd/net_file.xsd">

    <location netOffset="2500.00,5000.00" convBoundary="0.00,0.00,5500.00,5500.00" origBoundary="-2500.00,-5000.00,3000.00,500.00" projParameter="!"/>

    <edge id=":10_0" function="internal">
        <lane id=":10_0_0" index="0" speed="19.44" length="11.20" shape="4498.40,5004.00 4498.40,4992.80"/>
    </edge>
    <edge id=":10_1" function="internal">
        <lane id=":10_1_0" index="0" speed="6.51" length="4.28" shape="4498.40,5004.00 4498.75,5001.55 4499.68,5000.00"/>
    </edge>
    <edge id=":10_4" function="internal">
        <lane id=":10_4_0" index="0" speed="6.51" length="4.75" shape="4499.68,5000.00 4499.80,4999.80 4501.55,4998.75 4504.00,4998.40"/>
    </edge>
    <edge id=":10_2" function="internal">
        <lane id=":10_2_0" index="0" speed="6.51" length="9.03" shape="4492.80,4998.40 4495.25,4998.05 4497.00,4997.00 4498.05,4995.25 4498.40,4992.80"/>
    </edge>
    <edge id=":10_3" function="internal">
        <lane id=":10_3_0" index="0" speed="19.44" length="11.20" shape="4492.80,4998.40 4504.00,4998.40"/>
    </edge>
    <edge id=":100_0" function="internal">
        <lane id=":100_0_0" index="0" speed="19.44" length="11.20" shape="1498.40,1004.00 1498.40,992.80"/>
    </edge>
    <edge id=":100_1" function="internal">
        <lane id=":100_1_0" index="0" speed="6.51" length="4.28" shape="1498.40,1004.00 1498.75,1001.55 1499.68,1000.00"/>
    </edge>
    <edge id=":100_4" function="internal">
        <lane id=":100_4_0" index="0" speed="6.51" length="4.75" shape="1499.68,1000.00 1499.80,999.80 1501.55,998.75 1504.00,998.40"/>
    </edge>
    <edge id=":100_2" function="internal">
        <lane id=":100_2_0" index="0" speed="6.51" length="9.03" shape="1492.80,998.40 1495.25,998.05 1497.00,997.00 1498.05,995.25 1498.40,992.80"/>
    </edge>
    <edge id=":100_3" function="internal">
        <lane id=":100_3_0" index="0" speed="19.44" length="11.20" shape="1492.80,998.40 1504.00,998.40"/>
    </edge>
    <edge id=":101_0" function="internal">
        <lane id=":101_0_0" index="0" speed="6.51" length="9.03" shape="2001.60,992.80 2001.95,995.25 2003.00,997.00 2004.75,998.05 2007.20,998.40"/>
    </edge>
    <edge id=":101_1" function="internal">
        <lane id=":101_1_0" index="0" speed="19.44" length="11.20" shape="2001.60,992.80 2001.60,1004.00"/>
    </edge>
    <edge id=":101_2" function="internal">
        <lane id=":101_2_0" index="0" speed="19.44" length="11.20" shape="1996.00,998.40 2007.20,998.40"/>
    </edge>
    <edge id=":101_3" function="internal">
        <lane id=":101_3_0" index="0" speed="6.51" length="4.28" shape="1996.00,998.40 1998.45,998.75 2000.00,999.68"/>
    </edge>
    <edge id=":101_4" function="internal">
        <lane id=":101_4_0" index="0" speed="6.51" length="4.75" shape="2000.00,999.68 2000.20,999.80 2001.25,1001.55 2001.60,1004.00"/>
    </edge>
    <edge id=":102_0" function="internal">
        <lane id=":102_0_0" index="0" speed="19.44" length="11.20" shape="2498.40,1004.00 2498.40,992.80"/>
    </edge>
    <edge id=":102_1" function="internal">
        <lane id=":102_1_0" index="0" speed="6.51" length="4.28" shape="2498.40,1004.00 2498.75,1001.55 2499.68,1000.00"/>
    </edge>
    <edge id=":102_4" function="internal">
        <lane id=":102_4_0" index="0" speed="6.51" length="4.75" shape="2499.68,1000.00 2499.80,999.80 2501.55,998.75 2504.00,998.40"/>
    </edge>
    <edge id=":102_2" function="internal">
        <lane id=":102_2_0" index="0" speed="6.51" length="9.03" shape="2492.80,998.40 2495.25,998.05 2497.00,997.00 2498.05,995.25 2498.40,992.80"/>
    </edge>
    <edge id=":102_3" function="internal">
        <lane id=":102_3_0" index="0" speed="19.44" length="11.20" shape="2492.80,998.40 2504.00,998.40"/>
    </edge>
    <edge id=":103_0" function="internal">
        <lane id=":103_0_0" index="0" speed="6.51" length="9.03" shape="3001.60,992.80 3001.95,995.25 3003.00,997.00 3004.75,998.05 3007.20,998.40"/>
    </edge>
    <edge id=":103_1" function="internal">
        <lane id=":103_1_0" index="0" speed="19.44" length="11.20" shape="3001.60,992.80 3001.60,1004.00"/>
    </edge>
    <edge id=":103_2" function="internal">
        <lane id=":103_2_0" index="0" speed="19.44" length="11.20" shape="2996.00,998.40 3007.20,998.40"/>
    </edge>
    <edge id=":103_3" function="internal">
        <lane id=":103_3_0" index="0" speed="6.51" length="4.28" shape="2996.00,998.40 2998.45,998.75 3000.00,999.68"/>
    </edge>
    <edge id=":103_4" function="internal">
        <lane id=":103_4_0" index="0" speed="6.51" length="4.75" shape="3000.00,999.68 3000.20,999.80 3001.25,1001.55 3001.60,1004.00"/>
    </edge>
    <edge id=":104_0" function="internal">
        <lane id=":104_0_0" index="0" speed="19.44" length="11.20" shape="3498.40,1004.00 3498.40,992.80"/>
    </edge>
    <edge id=":104_1" function="internal">
        <lane id=":104_1_0" index="0" speed="6.51" length="4.28" shape="3498.40,1004.00 3498.75,1001.55 3499.68,1000.00"/>
    </edge>
    <edge id=":104_4" function="internal">
        <lane id=":104_4_0" index="0" speed="6.51" length="4.75" shape="3499.68,1000.00 3499.80,999.80 3501.55,998.75 3504.00,998.40"/>
    </edge>
    <edge id=":104_2" function="internal">
        <lane id=":104_2_0" index="0" speed="6.51" length="9.03" shape="3492.80,998.40 3495.25,998.05 3497.00,997.00 3498.05,995.25 3498.40,992.80"/>
    </edge>
    <edge id=":104_3" function="internal">
        <lane id=":104_3_0" index="0" speed="19.44" length="11.20" shape="3492.80,998.40 3504.00,998.40"/>
    </edge>
    <edge id=":105_0" function="internal">
        <lane id=":105_0_0" index="0" speed="6.51" length="9.03" shape="4001.60,992.80 4001.95,995.25 4003.00,997.00 4004.75,998.05 4007.20,998.40"/>
    </edge>
    <edge id=":105_1" function="internal">
        <lane id=":105_1_0" index="0" speed="19.44" length="11.20" shape="4001.60,992.80 4001.60,1004.00"/>
    </edge>
    <edge id=":105_2" function="internal">
        <lane id=":105_2_0" index="0" speed="19.44" length="11.20" shape="3996.00,998.40 4007.20,998.40"/>
    </edge>
    <edge id=":105_3" function="internal">
        <lane id=":105_3_0" index="0" speed="6.51" length="4.28" shape="3996.00,998.40 3998.45,998.75 4000.00,999.68"/>
    </edge>
    <edge id=":105_4" function="internal">
        <lane id=":105_4_0" index="0" speed="6.51" length="4.75" shape="4000.00,999.68 4000.20,999.80 4001.25,1001.55 4001.60,1004.00"/>
    </edge>
    <edge id=":106_0" function="internal">
        <lane id=":106_0_0" index="0" speed="19.44" length="11.20" shape="4498.40,1004.00 4498.40,992.80"/>
    </edge>
    <edge id=":106_1" function="internal">
        <lane id=":106_1_0" index="0" speed="6.51" length="4.28" shape="4498.40,1004.00 4498.75,1001.55 4499.68,1000.00"/>
    </edge>
    <edge id=":106_4" function="internal">
        <lane id=":106_4_0" index="0" speed="6.51" length="4.75" shape="4499.68,1000.00 4499.80,999.80 4501.55,998.75 4504.00,998.40"/>
    </edge>
    <edge id=":106_2" function="internal">
        <lane id=":106_2_0" index="0" speed="6.51" length="9.03" shape="4492.80,998.40 4495.25,998.05 4497.00,997.00 4498.05,995.25 4498.40,992.80"/>
    </edge>
    <edge id=":106_3" function="internal">
        <lane id=":106_3_0" index="0" speed="19.44" length="11.20" shape="4492.80,998.40 4504.00,998.40"/>
    </edge>
    <edge id=":107_0" function="internal">
        <lane id=":107_0_0" index="0" speed="6.51" length="9.03" shape="5001.60,992.80 5001.95,995.25 5003.00,997.00 5004.75,998.05 5007.20,998.40"/>
    </edge>
    <edge id=":107_1" function="internal">
        <lane id=":107_1_0" index="0" speed="19.44" length="11.20" shape="5001.60,992.80 5001.60,1004.00"/>
    </edge>
    <edge id=":107_2" function="internal">
        <lane id=":107_2_0" index="0" speed="19.44" length="11.20" shape="4996.00,998.40 5007.20,998.40"/>
    </edge>
    <edge id=":107_3" function="internal">
        <lane id=":107_3_0" index="0" speed="6.51" length="4.28" shape="4996.00,998.40 4998.45,998.75 5000.00,999.68"/>
    </edge>
    <edge id=":107_4" function="internal">
        <lane id=":107_4_0" index="0" speed="6.51" length="4.75" shape="5000.00,999.68 5000.20,999.80 5001.25,1001.55 5001.60,1004.00"/>
    </edge>
    <edge id=":11_0" function="internal">
        <lane id=":11_0_0" index="0" speed="6.51" length="9.03" shape="5001.60,4992.80 5001.95,4995.25 5003.00,4997.00 5004.75,4998.05 5007.20,4998.40"/>
    </edge>
    <edge id=":11_1" function="internal">
        <lane id=":11_1_0" index="0" speed="19.44" length="11.20" shape="5001.60,4992.80 5001.60,5004.00"/>
    </edge>
    <edge id=":11_2" function="internal">
        <lane id=":11_2_0" index="0" speed="19.44" length="11.20" shape="4996.00,4998.40 5007.20,4998.40"/>
    </edge>
    <edge id=":11_3" function="internal">
        <lane id=":11_3_0" index="0" speed="6.51" length="4.28" shape="4996.00,4998.40 4998.45,4998.75 5000.00,4999.68"/>
    </edge>
    <edge id=":11_4" function="internal">
        <lane id=":11_4_0" index="0" speed="6.51" length="4.75" shape="5000.00,4999.68 5000.20,4999.80 5001.25,5001.55 5001.60,5004.00"/>
    </edge>
    <edge id=":110_0" function="internal">
        <lane id=":110_0_0" index="0" speed="6.51" length="9.03" shape="498.40,507.20 498.05,504.75 497.00,503.00 495.25,501.95 492.80,501.60"/>
    </edge>
    <edge id=":110_1" function="internal">
        <lane id=":110_1_0" index="0" speed="19.44" length="11.20" shape="498.40,507.20 498.40,496.00"/>
    </edge>
    <edge id=":110_2" function="internal">
        <lane id=":110_2_0" index="0" speed="19.44" length="11.20" shape="504.00,501.60 492.80,501.60"/>
    </edge>
    <edge id=":110_3" function="internal">
        <lane id=":110_3_0" index="0" speed="6.51" length="4.28" shape="504.00,501.60 501.55,501.25 500.00,500.32"/>
    </edge>
    <edge id=":110_4" function="internal">
        <lane id=":110_4_0" index="0" speed="6.51" length="4.75" shape="500.00,500.32 499.80,500.20 498.75,498.45 498.40,496.00"/>
    </edge>
    <edge id=":111_0" function="internal">
        <lane id=":111_0_0" index="0" speed="6.51" length="9.03" shape="1007.20,501.60 1004.75,501.95 1003.00,503.00 1001.95,504.75 1001.60,507.20"/>
    </edge>
    <edge id=":111_1" function="internal">
        <lane id=":111_1_0" index="0" speed="19.44" length="11.20" shape="1007.20,501.60 996.00,501.60"/>
    </edge>
    <edge id=":111_2" function="internal">
        <lane id=":111_2_0" index="0" speed="19.44" length="11.20" shape="1001.60,496.00 1001.60,507.20"/>
    </edge>
    <edge id=":111_3" function="internal">
        <lane id=":111_3_0" index="0" speed="6.51" length="4.28" shape="1001.60,496.00 1001.25,498.45 1000.32,500.00"/>
    </edge>
    <edge id=":111_4" function="internal">
        <lane id=":111_4_0" index="0" speed="6.51" length="4.75" shape="1000.32,500.00 1000.20,500.20 998.45,501.25 996.00,501.60"/>
    </edge>
    <edge id=":112_0" function="internal">
        <lane id=":112_0_0" index="0" speed="6.51" length="9.03" shape="1498.40,507.20 1498.05,504.75 1497.00,503.00 1495.25,501.95 1492.80,501.60"/>
    </edge>
    <edge id=":112_1" function="internal">
        <lane id=":112_1_0" index="0" speed="19.44" length="11.20" shape="1498.40,507.20 1498.40,496.00"/>
    </edge>
    <edge id=":112_2" function="internal">
        <lane id=":112_2_0" index="0" speed="19.44" length="11.20" shape="1504.00,501.60 1492.80,501.60"/>
    </edge>
    <edge id=":112_3" function="internal">
        <lane id=":112_3_0" index="0" speed="6.51" length="4.28" shape="1504.00,501.60 1501.55,501.25 1500.00,500.32"/>
    </edge>
    <edge id=":112_4" function="internal">
        <lane id=":112_4_0" index="0" speed="6.51" length="4.75" shape="1500.00,500.32 1499.80,500.20 1498.75,498.45 1498.40,496.00"/>
    </edge>
    <edge id=":113_0" function="internal">
        <lane id=":113_0_0" index="0" speed="6.51" length="9.03" shape="2007.20,501.60 2004.75,501.95 2003.00,503.00 2001.95,504.75 2001.60,507.20"/>
    </edge>
    <edge id=":113_1" function="internal">
        <lane id=":113_1_0" index="0" speed="19.44" length="11.20" shape="2007.20,501.60 1996.00,501.60"/>
    </edge>
    <edge id=":113_2" function="internal">
        <lane id=":113_2_0" index="0" speed="19.44" length="11.20" shape="2001.60,496.00 2001.60,507.20"/>
    </edge>
    <edge id=":113_3" function="internal">
        <lane id=":113_3_0" index="0" speed="6.51" length="4.28" shape="2001.60,496.00 2001.25,498.45 2000.32,500.00"/>
    </edge>
    <edge id=":113_4" function="internal">
        <lane id=":113_4_0" index="0" speed="6.51" length="4.75" shape="2000.32,500.00 2000.20,500.20 1998.45,501.25 1996.00,501.60"/>
    </edge>
    <edge id=":114_0" function="internal">
        <lane id=":114_0_0" index="0" speed="6.51" length="9.03" shape="2498.40,507.20 2498.05,504.75 2497.00,503.00 2495.25,501.95 2492.80,501.60"/>
    </edge>
    <edge id=":114_1" function="internal">
        <lane id=":114_1_0" index="0" speed="19.44" length="11.20" shape="2498.40,507.20 2498.40,496.00"/>
    </edge>
    <edge id=":114_2" function="internal">
        <lane id=":114_2_0" index="0" speed="19.44" length="11.20" shape="2504.00,501.60 2492.80,501.60"/>
    </edge>
    <edge id=":114_3" function="internal">
        <lane id=":114_3_0" index="0" speed="6.51" length="4.28" shape="2504.00,501.60 2501.55,501.25 2500.00,500.32"/>
    </edge>
    <edge id=":114_4" function="internal">
        <lane id=":114_4_0" index="0" speed="6.51" length="4.75" shape="2500.00,500.32 2499.80,500.20 2498.75,498.45 2498.40,496.00"/>
    </edge>
    <edge id=":115_0" function="internal">
        <lane id=":115_0_0" index="0" speed="6.51" length="9.03" shape="3007.20,501.60 3004.75,501.95 3003.00,503.00 3001.95,504.75 3001.60,507.20"/>
    </edge>
    <edge id=":115_1" function="internal">
        <lane id=":115_1_0" index="0" speed="19.44" length="11.20" shape="3007.20,501.60 2996.00,501.60"/>
    </edge>
    <edge id=":115_2" function="internal">
        <lane id=":115_2_0" index="0" speed="19.44" length="11.20" shape="3001.60,496.00 3001.60,507.20"/>
    </edge>
    <edge id=":115_3" function="internal">
        <lane id=":115_3_0" index="0" speed="6.51" length="4.28" shape="3001.60,496.00 3001.25,498.45 3000.32,500.00"/>
    </edge>
    <edge id=":115_4" function="internal">
        <lane id=":115_4_0" index="0" speed="6.51" length="4.75" shape="3000.32,500.00 3000.20,500.20 2998.45,501.25 2996.00,501.60"/>
    </edge>
    <edge id=":116_0" function="internal">
        <lane id=":116_0_0" index="0" speed="6.51" length="9.03" shape="3498.40,507.20 3498.05,504.75 3497.00,503.00 3495.25,501.95 3492.80,501.60"/>
    </edge>
    <edge id=":116_1" function="internal">
        <lane id=":116_1_0" index="0" speed="19.44" length="11.20" shape="3498.40,507.20 3498.40,496.00"/>
    </edge>
    <edge id=":116_2" function="internal">
        <lane id=":116_2_0" index="0" speed="19.44" length="11.20" shape="3504.00,501.60 3492.80,501.60"/>
    </edge>
    <edge id=":116_3" function="internal">
        <lane id=":116_3_0" index="0" speed="6.51" length="4.28" shape="3504.00,501.60 3501.55,501.25 3500.00,500.32"/>
    </edge>
    <edge id=":116_4" function="internal">
        <lane id=":116_4_0" index="0" speed="6.51" length="4.75" shape="3500.00,500.32 3499.80,500.20 3498.75,498.45 3498.40,496.00"/>
    </edge>
    <edge id=":117_0" function="internal">
        <lane id=":117_0_0" index="0" speed="6.51" length="9.03" shape="4007.20,501.60 4004.75,501.95 4003.00,503.00 4001.95,504.75 4001.60,507.20"/>
    </edge>
    <edge id=":117_1" function="internal">
        <lane id=":117_1_0" index="0" speed="19.44" length="11.20" shape="4007.20,501.60 3996.00,501.60"/>
    </edge>
    <edge id=":117_2" function="internal">
        <lane id=":117_2_0" index="0" speed="19.44" length="11.20" shape="4001.60,496.00 4001.60,507.20"/>
    </edge>
    <edge id=":117_3" function="internal">
        <lane id=":117_3_0" index="0" speed="6.51" length="4.28" shape="4001.60,496.00 4001.25,498.45 4000.32,500.00"/>
    </edge>
    <edge id=":117_4" function="internal">
        <lane id=":117_4_0" index="0" speed="6.51" length="4.75" shape="4000.32,500.00 4000.20,500.20 3998.45,501.25 3996.00,501.60"/>
    </edge>
    <edge id=":118_0" function="internal">
        <lane id=":118_0_0" index="0" speed="6.51" length="9.03" shape="4498.40,507.20 4498.05,504.75 4497.00,503.00 4495.25,501.95 4492.80,501.60"/>
    </edge>
    <edge id=":118_1" function="internal">
        <lane id=":118_1_0" index="0" speed="19.44" length="11.20" shape="4498.40,507.20 4498.40,496.00"/>
    </edge>
    <edge id=":118_2" function="internal">
        <lane id=":118_2_0" index="0" speed="19.44" length="11.20" shape="4504.00,501.60 4492.80,501.60"/>
    </edge>
    <edge id=":118_3" function="internal">
        <lane id=":118_3_0" index="0" speed="6.51" length="4.28" shape="4504.00,501.60 4501.55,501.25 4500.00,500.32"/>
    </edge>
    <edge id=":118_4" function="internal">
        <lane id=":118_4_0" index="0" speed="6.51" length="4.75" shape="4500.00,500.32 4499.80,500.20 4498.75,498.45 4498.40,496.00"/>
    </edge>
    <edge id=":119_0" function="internal">
        <lane id=":119_0_0" index="0" speed="6.51" length="9.03" shape="5007.20,501.60 5004.75,501.95 5003.00,503.00 5001.95,504.75 5001.60,507.20"/>
    </edge>
    <edge id=":119_1" function="internal">
        <lane id=":119_1_0" index="0" speed="19.44" length="11.20" shape="5007.20,501.60 4996.00,501.60"/>
    </edge>
    <edge id=":119_2" function="internal">
        <lane id=":119_2_0" index="0" speed="19.44" length="11.20" shape="5001.60,496.00 5001.60,507.20"/>
    </edge>
    <edge id=":119_3" function="internal">
        <lane id=":119_3_0" index="0" speed="6.51" length="4.28" shape="5001.60,496.00 5001.25,498.45 5000.32,500.00"/>
    </edge>
    <edge id=":119_4" function="internal">
        <lane id=":119_4_0" index="0" speed="6.51" length="4.75" shape="5000.32,500.00 5000.20,500.20 4998.45,501.25 4996.00,501.60"/>
    </edge>
    <edge id=":14_0" function="internal">
        <lane id=":14_0_0" index="0" speed="6.51" length="9.03" shape="498.40,4507.20 498.05,4504.75 497.00,4503.00 495.25,4501.95 492.80,4501.60"/>
    </edge>
    <edge id=":14_1" function="internal">
        <lane id=":14_1_0" index="0" speed="19.44" length="11.20" shape="498.40,4507.20 498.40,4496.00"/>
    </edge>
    <edge id=":14_2" function="internal">
        <lane id=":14_2_0" index="0" speed="19.44" length="11.20" shape="504.00,4501.60 492.80,4501.60"/>
    </edge>
    <edge id=":14_3" function="internal">
        <lane id=":14_3_0" index="0" speed="6.51" length="4.28" shape="504.00,4501.60 501.55,4501.25 500.00,4500.32"/>
    </edge>
    <edge id=":14_4" function="internal">
        <lane id=":14_4_0" index="0" speed="6.51" length="4.75" shape="500.00,4500.32 499.80,4500.20 498.75,4498.45 498.40,4496.00"/>
    </edge>
    <edge id=":15_0" function="internal">
        <lane id=":15_0_0" index="0" speed="6.51" length="9.03" shape="1007.20,4501.60 1004.75,4501.95 1003.00,4503.00 1001.95,4504.75 1001.60,4507.20"/>
    </edge>
    <edge id=":15_1" function="internal">
        <lane id=":15_1_0" index="0" speed="19.44" length="11.20" shape="1007.20,4501.60 996.00,4501.60"/>
    </edge>
    <edge id=":15_2" function="internal">
        <lane id=":15_2_0" index="0" speed="19.44" length="11.20" shape="1001.60,4496.00 1001.60,4507.20"/>
    </edge>
    <edge id=":15_3" function="internal">
        <lane id=":15_3_0" index="0" speed="6.51" length="4.28" shape="1001.60,4496.00 1001.25,4498.45 1000.32,4500.00"/>
    </edge>
    <edge id=":15_4" function="internal">
        <lane id=":15_4_0" index="0" speed="6.51" length="4.75" shape="1000.32,4500.00 1000.20,4500.20 998.45,4501.25 996.00,4501.60"/>
    </edge>
    <edge id=":16_0" function="internal">
        <lane id=":16_0_0" index="0" speed="6.51" length="9.03" shape="1498.40,4507.20 1498.05,4504.75 1497.00,4503.00 1495.25,4501.95 1492.80,4501.60"/>
    </edge>
    <edge id=":16_1" function="internal">
        <lane id=":16_1_0" index="0" speed="19.44" length="11.20" shape="1498.40,4507.20 1498.40,4496.00"/>
    </edge>
    <edge id=":16_2" function="internal">
        <lane id=":16_2_0" index="0" speed="19.44" length="11.20" shape="1504.00,4501.60 1492.80,4501.60"/>
    </edge>
    <edge id=":16_3" function="internal">
        <lane id=":16_3_0" index="0" speed="6.51" length="4.28" shape="1504.00,4501.60 1501.55,4501.25 1500.00,4500.32"/>
    </edge>
    <edge id=":16_4" function="internal">
        <lane id=":16_4_0" index="0" speed="6.51" length="4.75" shape="1500.00,4500.32 1499.80,4500.20 1498.75,4498.45 1498.40,4496.00"/>
    </edge>
    <edge id=":17_0" function="internal">
        <lane id=":17_0_0" index="0" speed="6.51" length="9.03" shape="2007.20,4501.60 2004.75,4501.95 2003.00,4503.00 2001.95,4504.75 2001.60,4507.20"/>
    </edge>
    <edge id=":17_1" function="internal">
        <lane id=":17_1_0" index="0" speed="19.44" length="11.20" shape="2007.20,4501.60 1996.00,4501.60"/>
    </edge>
    <edge id=":17_2" function="internal">
        <lane id=":17_2_0" index="0" speed="19.44" length="11.20" shape="2001.60,4496.00 2001.60,4507.20"/>
    </edge>
    <edge id=":17_3" function="internal">
        <lane id=":17_3_0" index="0" speed="6.51" length="4.28" shape="2001.60,4496.00 2001.25,4498.45 2000.32,4500.00"/>
    </edge>
    <edge id=":17_4" function="internal">
        <lane id=":17_4_0" index="0" speed="6.51" length="4.75" shape="2000.32,4500.00 2000.20,4500.20 1998.45,4501.25 1996.00,4501.60"/>
    </edge>
    <edge id=":18_0" function="internal">
        <lane id=":18_0_0" index="0" speed="6.51" length="9.03" shape="2498.40,4507.20 2498.05,4504.75 2497.00,4503.00 2495.25,4501.95 2492.80,4501.60"/>
    </edge>
    <edge id=":18_1" function="internal">
        <lane id=":18_1_0" index="0" speed="19.44" length="11.20" shape="2498.40,4507.20 2498.40,4496.00"/>
    </edge>
    <edge id=":18_2" function="internal">
        <lane id=":18_2_0" index="0" speed="19.44" length="11.20" shape="2504.00,4501.60 2492.80,4501.60"/>
    </edge>
    <edge id=":18_3" function="internal">
        <lane id=":18_3_0" index="0" speed="6.51" length="4.28" shape="2504.00,4501.60 2501.55,4501.25 2500.00,4500.32"/>
    </edge>
    <edge id=":18_4" function="internal">
        <lane id=":18_4_0" index="0" speed="6.51" length="4.75" shape="2500.00,4500.32 2499.80,4500.20 2498.75,4498.45 2498.40,4496.00"/>
    </edge>
    <edge id=":19_0" function="internal">
        <lane id=":19_0_0" index="0" speed="6.51" length="9.03" shape="3007.20,4501.60 3004.75,4501.95 3003.00,4503.00 3001.95,4504.75 3001.60,4507.20"/>
    </edge>
    <edge id=":19_1" function="internal">
        <lane id=":19_1_0" index="0" speed="19.44" length="11.20" shape="3007.20,4501.60 2996.00,4501.60"/>
    </edge>
    <edge id=":19_2" function="internal">
        <lane id=":19_2_0" index="0" speed="19.44" length="11.20" shape="3001.60,4496.00 3001.60,4507.20"/>
    </edge>
    <edge id=":19_3" function="internal">
        <lane id=":19_3_0" index="0" speed="6.51" length="4.28" shape="3001.60,4496.00 3001.25,4498.45 3000.32,4500.00"/>
    </edge>
    <edge id=":19_4" function="internal">
        <lane id=":19_4_0" index="0" speed="6.51" length="4.75" shape="3000.32,4500.00 3000.20,4500.20 2998.45,4501.25 2996.00,4501.60"/>
    </edge>
    <edge id=":2_0" function="internal">
        <lane id=":2_0_0" index="0" speed="19.44" length="11.20" shape="498.40,5004.00 498.40,4992.80"/>
    </edge>
    <edge id=":2_1" function="internal">
        <lane id=":2_1_0" index="0" speed="6.51" length="4.28" shape="498.40,5004.00 498.75,5001.55 499.68,5000.00"/>
    </edge>
    <edge id=":2_4" function="internal">
        <lane id=":2_4_0" index="0" speed="6.51" length="4.75" shape="499.68,5000.00 499.80,4999.80 501.55,4998.75 504.00,4998.40"/>
    </edge>
    <edge id=":2_2" function="internal">
        <lane id=":2_2_0" index="0" speed="6.51" length="9.03" shape="492.80,4998.40 495.25,4998.05 497.00,4997.00 498.05,4995.25 498.40,4992.80"/>
    </edge>
    <edge id=":2_3" function="internal">
        <lane id=":2_3_0" index="0" speed="19.44" length="11.20" shape="492.80,4998.40 504.00,4998.40"/>
    </edge>
    <edge id=":20_0" function="internal">
        <lane id=":20_0_0" index="0" speed="6.51" length="9.03" shape="3498.40,4507.20 3498.05,4504.75 3497.00,4503.00 3495.25,4501.95 3492.80,4501.60"/>
    </edge>
    <edge id=":20_1" function="internal">
        <lane id=":20_1_0" index="0" speed="19.44" length="11.20" shape="3498.40,4507.20 3498.40,4496.00"/>
    </edge>
    <edge id=":20_2" function="internal">
        <lane id=":20_2_0" index="0" speed="19.44" length="11.20" shape="3504.00,4501.60 3492.80,4501.60"/>
    </edge>
    <edge id=":20_3" function="internal">
        <lane id=":20_3_0" index="0" speed="6.51" length="4.28" shape="3504.00,4501.60 3501.55,4501.25 3500.00,4500.32"/>
    </edge>
    <edge id=":20_4" function="internal">
        <lane id=":20_4_0" index="0" speed="6.51" length="4.75" shape="3500.00,4500.32 3499.80,4500.20 3498.75,4498.45 3498.40,4496.00"/>
    </edge>
    <edge id=":21_0" function="internal">
        <lane id=":21_0_0" index="0" speed="6.51" length="9.03" shape="4007.20,4501.60 4004.75,4501.95 4003.00,4503.00 4001.95,4504.75 4001.60,4507.20"/>
    </edge>
    <edge id=":21_1" function="internal">
        <lane id=":21_1_0" index="0" speed="19.44" length="11.20" shape="4007.20,4501.60 3996.00,4501.60"/>
    </edge>
    <edge id=":21_2" function="internal">
        <lane id=":21_2_0" index="0" speed="19.44" length="11.20" shape="4001.60,4496.00 4001.60,4507.20"/>
    </edge>
    <edge id=":21_3" function="internal">
        <lane id=":21_3_0" index="0" speed="6.51" length="4.28" shape="4001.60,4496.00 4001.25,4498.45 4000.32,4500.00"/>
    </edge>
    <edge id=":21_4" function="internal">
        <lane id=":21_4_0" index="0" speed="6.51" length="4.75" shape="4000.32,4500.00 4000.20,4500.20 3998.45,4501.25 3996.00,4501.60"/>
    </edge>
    <edge id=":22_0" function="internal">
        <lane id=":22_0_0" index="0" speed="6.51" length="9.03" shape="4498.40,4507.20 4498.05,4504.75 4497.00,4503.00 4495.25,4501.95 4492.80,4501.60"/>
    </edge>
    <edge id=":22_1" function="internal">
        <lane id=":22_1_0" index="0" speed="19.44" length="11.20" shape="4498.40,4507.20 4498.40,4496.00"/>
    </edge>
    <edge id=":22_2" function="internal">
        <lane id=":22_2_0" index="0" speed="19.44" length="11.20" shape="4504.00,4501.60 4492.80,4501.60"/>
    </edge>
    <edge id=":22_3" function="internal">
        <lane id=":22_3_0" index="0" speed="6.51" length="4.28" shape="4504.00,4501.60 4501.55,4501.25 4500.00,4500.32"/>
    </edge>
    <edge id=":22_4" function="internal">
        <lane id=":22_4_0" index="0" speed="6.51" length="4.75" shape="4500.00,4500.32 4499.80,4500.20 4498.75,4498.45 4498.40,4496.00"/>
    </edge>
    <edge id=":23_0" function="internal">
        <lane id=":23_0_0" index="0" speed="6.51" length="9.03" shape="5007.20,4501.60 5004.75,4501.95 5003.00,4503.00 5001.95,4504.75 5001.60,4507.20"/>
    </edge>
    <edge id=":23_1" function="internal">
        <lane id=":23_1_0" index="0" speed="19.44" length="11.20" shape="5007.20,4501.60 4996.00,4501.60"/>
    </edge>
    <edge id=":23_2" function="internal">
        <lane id=":23_2_0" index="0" speed="19.44" length="11.20" shape="5001.60,4496.00 5001.60,4507.20"/>
    </edge>
    <edge id=":23_3" function="internal">
        <lane id=":23_3_0" index="0" speed="6.51" length="4.28" shape="5001.60,4496.00 5001.25,4498.45 5000.32,4500.00"/>
    </edge>
    <edge id=":23_4" function="internal">
        <lane id=":23_4_0" index="0" speed="6.51" length="4.75" shape="5000.32,4500.00 5000.20,4500.20 4998.45,4501.25 4996.00,4501.60"/>
    </edge>
    <edge id=":26_0" function="internal">
        <lane id=":26_0_0" index="0" speed="19.44" length="11.20" shape="498.40,4004.00 498.40,3992.80"/>
    </edge>
    <edge id=":26_1" function="internal">
        <lane id=":26_1_0" index="0" speed="6.51" length="4.28" shape="498.40,4004.00 498.75,4001.55 499.68,4000.00"/>
    </edge>
    <edge id=":26_4" function="internal">
        <lane id=":26_4_0" index="0" speed="6.51" length="4.75" shape="499.68,4000.00 499.80,3999.80 501.55,3998.75 504.00,3998.40"/>
    </edge>
    <edge id=":26_2" function="internal">
        <lane id=":26_2_0" index="0" speed="6.51" length="9.03" shape="492.80,3998.40 495.25,3998.05 497.00,3997.00 498.05,3995.25 498.40,3992.80"/>
    </edge>
    <edge id=":26_3" function="internal">
        <lane id=":26_3_0" index="0" speed="19.44" length="11.20" shape="492.80,3998.40 504.00,3998.40"/>
    </edge>
    <edge id=":27_0" function="internal">
        <lane id=":27_0_0" index="0" speed="6.51" length="9.03" shape="1001.60,3992.80 1001.95,3995.25 1003.00,3997.00 1004.75,3998.05 1007.20,3998.40"/>
    </edge>
    <edge id=":27_1" function="internal">
        <lane id=":27_1_0" index="0" speed="19.44" length="11.20" shape="1001.60,3992.80 1001.60,4004.00"/>
    </edge>
    <edge id=":27_2" function="internal">