<?xml version="1.0" encoding="UTF-8"?>
<nodes xmlns:xsi="http://www.w3.org/2001/XMLSchema-instance" xsi:noNamespaceSchemaLocation="http://sumo.dlr.de/xsd/nodes_file.xsd">
   <node id ="1"  x="-2500.0"   y="0.0"       type="priority" />
	<node id ="2"  x="-2000.0"   y="0.0"       type="priority"/>
	<node id ="3"  x="-1500.0"    y="0.0"       type="priority"/>
	<node id ="4"  x="-1000.0"    y="0.0"       type="priority"/>
	<node id ="5"  x="-500.0"    y="0.0"       type="priority"/>
	<node id ="6"  x="0.0"       y="0.0"       type="priority"/>
	<node id ="7"  x="500.0"     y="0.0"       type="priority"/>
	<node id ="8"  x="1000.0"    y="0.0"       type="priority"/>
	<node id ="9"  x="1500.0"    y="0.0"       type="priority"/>
	<node id ="10"  x="2000.0"    y="0.0"       type="priority"/>
	<node id ="11"  x="2500.0"    y="0.0"       type="priority"/>
	<node id ="12"  x="3000.0"    y="0.0"       type="priority"/>
	<node id ="13"  x="-2500.0"   y="-500.0"       type="priority" />
	<node id ="14"  x="-2000.0"   y="-500.0"       type="priority"/>
	<node id ="15"  x="-1500.0"    y="-500.0"       type="priority"/>
	<node id ="16"  x="-1000.0"    y="-500.0"       type="priority"/>
	<node id ="17"  x="-500.0"    y="-500.0"       type="priority"/>
	<node id ="18"  x="0.0"       y="-500.0"       type="priority"/>
	<node id ="19"  x="500.0"     y="-500.0"       type="priority"/>
	<node id ="20"  x="1000.0"    y="-500.0"       type="priority"/>
	<node id ="21"  x="1500.0"    y="-500.0"       type="priority"/>
	<node id ="22"  x="2000.0"    y="-500.0"       type="priority"/>
	<node id ="23"  x="2500.0"    y="-500.0"       type="priority"/>
	<node id ="24"  x="3000.0"    y="-500.0"       type="priority"/>
	<node id ="25"  x="-2500.0"   y="-1000.0"       type="priority" />
	<node id ="26"  x="-2000.0"   y="-1000.0"       type="priority"/>
	<node id ="27"  x="-1500.0"    y="-1000.0"       type="priority"/>
	<node id ="28"  x="-1000.0"    y="-1000.0"       type="priority"/>
	<node id ="29"  x="-500.0"    y="-1000.0"       type="priority"/>
	<node id ="30"  x="0.0"       y="-1000.0"       type="priority"/>
	<node id ="31"  x="500.0"     y="-1000.0"       type="priority"/>
	<node id ="32"  x="1000.0"    y="-1000.0"       type="priority"/>
	<node id ="33"  x="1500.0"    y="-1000.0"       type="priority"/>
	<node id ="34"  x="2000.0"    y="-1000.0"       type="priority"/>
	<node id ="35"  x="2500.0"    y="-1000.0"       type="priority"/>
	<node id ="36"  x="3000.0"    y="-1000.0"       type="priority"/>
	<node id ="37"  x="-2500.0"   y="-1500.0"       type="priority" />
	<node id ="38"  x="-2000.0"   y="-1500.0"       type="priority"/>
	<node id ="39"  x="-1500.0"    y="-1500.0"       type="priority"/>
	<node id ="40"  x="-1000.0"    y="-1500.0"       type="priority"/>
	<node id ="41"  x="-500.0"    y="-1500.0"       type="priority"/>
	<node id ="42"  x="0.0"       y="-1500.0"       type="priority"/>
	<node id ="43"  x="500.0"     y="-1500.0"       type="priority"/>
	<node id ="44"  x="1000.0"    y="-1500.0"       type="priority"/>
	<node id ="45"  x="1500.0"    y="-1500.0"       type="priority"/>
	<node id ="46"  x="2000.0"    y="-1500.0"       type="priority"/>
	<node id ="47"  x="2500.0"    y="-1500.0"       type="priority"/>
	<node id ="48"  x="3000.0"    y="-1500.0"       type="priority"/>
	<node id ="49"  x="-2500.0"   y="-2000.0"       type="priority" />
	<node id ="50"  x="-2000.0"   y="-2000.0"       type="priority"/>
	<node id ="51"  x="-1500.0"    y="-2000.0"       type="priority"/>
	<node id ="52"  x="-1000.0"    y="-2000.0"       type="priority"/>
	<node id ="53"  x="-500.0"    y="-2000.0"       type="priority"/>
	<node id ="54"  x="0.0"       y="-2000.0"       type="priority"/>
	<node id ="55"  x="500.0"     y="-2000.0"       type="priority"/>
	<node id ="56"  x="1000.0"    y="-2000.0"       type="priority"/>
	<node id ="57"  x="1500.0"    y="-2000.0"       type="priority"/>
	<node id ="58"  x="2000.0"    y="-2000.0"       type="priority"/>
	<node id ="59"  x="2500.0"    y="-2000.0"       type="priority"/>
	<node id ="60"  x="3000.0"    y="-2000.0"       type="priority"/>
	<node id ="61"  x="-2500.0"   y="-2500.0"       type="priority" />
	<node id ="62"  x="-2000.0"   y="-2500.0"       type="priority"/>
	<node id ="63"  x="-1500.0"    y="-2500.0"       type="priority"/>
	<node id ="64"  x="-1000.0"    y="-2500.0"       type="priority"/>
	<node id ="65"  x="-500.0"    y="-2500.0"       type="priority"/>
	<node id ="66"  x="0.0"       y="-2500.0"       type="priority"/>
	<node id ="67"  x="500.0"     y="-2500.0"       type="priority"/>
	<node id ="68"  x="1000.0"    y="-2500.0"       type="priority"/>
	<node id ="69"  x="1500.0"    y="-2500.0"       type="priority"/>
	<node id ="70"  x="2000.0"    y="-2500.0"       type="priority"/>
	<node id ="71"  x="2500.0"    y="-2500.0"       type="priority"/>
	<node id ="72"  x="3000.0"    y="-2500.0"       type="priority"/>
	<node id ="73"  x="-2500.0"   y="-3000.0"       type="priority" />
	<node id ="74"  x="-2000.0"   y="-3000.0"       type="priority"/>
	<node id ="75"  x="-1500.0"    y="-3000.0"       type="priority"/>
	<node id ="76"  x="-1000.0"    y="-3000.0"       type="priority"/>
	<node id ="77"  x="-500.0"    y="-3000.0"       type="priority"/>
	<node id ="78"  x="0.0"       y="-3000.0"       type="priority"/>
	<node id ="79"  x="500.0"     y="-3000.0"       type="priority"/>
	<node id ="80"  x="1000.0"    y="-3000.0"       type="priority"/>
	<node id ="81"  x="1500.0"    y="-3000.0"       type="priority"/>
	<node id ="82"  x="2000.0"    y="-3000.0"       type="priority"/>
	<node id ="83"  x="2500.0"    y="-3000.0"       type="priority"/>
	<node id ="84"  x="3000.0"    y="-3000.0"       type="priority"/>
	<node id ="85"  x="-2500.0"   y="-3500.0"       type="priority" />
	<node id ="86"  x="-2000.0"   y="-3500.0"       type="priority"/>
	<node id ="87"  x="-1500.0"    y="-3500.0"       type="priority"/>
	<node id ="88"  x="-1000.0"    y="-3500.0"       type="priority"/>
	<node id ="89"  x="-500.0"    y="-3500.0"       type="priority"/>
	<node id ="90"  x="0.0"       y="-3500.0"       type="priority"/>
	<node id ="91"  x="500.0"     y="-3500.0"       type="priority"/>
	<node id ="92"  x="1000.0"    y="-3500.0"       type="priority"/>
	<node id ="93"  x="1500.0"    y="-3500.0"       type="priority"/>
	<node id ="94"  x="2000.0"    y="-3500.0"       type="priority"/>
	<node id ="95"  x="2500.0"    y="-3500.0"       type="priority"/>
	<node id ="96"  x="3000.0"    y="-3500.0"       type="priority"/>
	<node id ="97"  x="-2500.0"   y="-4000.0"       type="priority" />
	<node id ="98"  x="-2000.0"   y="-4000.0"       type="priority"/>
	<node id ="99"  x="-1500.0"    y="-4000.0"       type="priority"/>
	<node id ="100"  x="-1000.0"    y="-4000.0"       type="priority"/>
	<node id ="101"  x="-500.0"    y="-4000.0"       type="priority"/>
	<node id ="102"  x="0.0"       y="-4000.0"       type="priority"/>
	<node id ="103"  x="500.0"     y="-4000.0"       type="priority"/>
	<node id ="104"  x="1000.0"    y="-4000.0"       type="priority"/>
	<node id ="105"  x="1500.0"    y="-4000.0"       type="priority"/>
	<node id ="106"  x="2000.0"    y="-4000.0"       type="priority"/>
	<node id ="107"  x="2500.0"    y="-4000.0"       type="priority"/>
	<node id ="108"  x="3000.0"    y="-4000.0"       type="priority"/>
	<node id ="109"  x="-2500.0"   y="-4500.0"       type="priority" />
	<node id ="110"  x="-2000.0"   y="-4500.0"       type="priority"/>
	<node id ="111"  x="-1500.0"    y="-4500.0"       type="priority"/>
	<node id ="112"  x="-1000.0"    y="-4500.0"       type="priority"/>
	<node id ="113"  x="-500.0"    y="-4500.0"       type="priority"/>
	<node id ="114"  x="0.0"       y="-4500.0"       type="priority"/>
	<node id ="115"  x="500.0"     y="-4500.0"       type="priority"/>
	<node id ="116"  x="1000.0"    y="-4500.0"       type="priority"/>
	<node id ="117"  x="1500.0"    y="-4500.0"       type="priority"/>
	<node id ="118"  x="2000.0"    y="-4500.0"       type="priority"/>
	<node id ="119"  x="2500.0"    y="-4500.0"       type="priority"/>
	<node id ="120"  x="3000.0"    y="-4500.0"       type="priority"/>
	<node id ="121"  x="-2000.0" y="500.0"  type="priority"/>
	<node id ="122"  x="-2000.0" y="-5000.0" type="priority"/>
	<node id ="123"  x="-1500.0" y="500.0"  type="priority"/>
	<node id ="124"  x="-1500.0" y="-5000.0" type="priority"/>
	<node id ="125"  x="-1000.0" y="500.0"  type="priority"/>
	<node id ="126"  x="-1000.0" y="-5000.0" type="priority"/>
	<node id ="127"  x="-500.0" y="500.0"  type="priority"/>
	<node id ="128"  x="-500.0" y="-5000.0" type="priority"/>
	<node id ="129"  x="0.0" y="500.0"  type="priority"/>
	<node id ="130"  x="0.0" y="-5000.0" type="priority"/>
	<node id ="131"  x="500.0" y="500.0"  type="priority"/>
	<node id ="132"  x="500.0" y="-5000.0" type="priority"/>
	<node id ="133"  x="1000.0" y="500.0"  type="priority"/>
	<node id ="134"  x="1000.0" y="-5000.0" type="priority"/>
	<node id ="135"  x="1500.0" y="500.0"  type="priority"/>
	<node id ="136"  x="1500.0" y="-5000.0" type="priority"/>
	<node id ="137"  x="2000.0" y="500.0"  type="priority"/>
	<node id ="138"  x="2000.0" y="-5000.0" type="priority"/>
	<node id ="139"  x="2500.0" y="500.0"  type="priority"/>
	<node id ="140"  x="2500.0" y="-5000.0" type="priority"/>
	
</nodes>
