<?xml version="1.0" encoding="UTF-8"?>

<!-- generated on Wed Mar 31 20:35:45 2021 by Eclipse SUMO duarouter Version 1.6.0
<configuration xmlns:xsi="http://www.w3.org/2001/XMLSchema-instance" xsi:noNamespaceSchemaLocation="http://sumo.dlr.de/xsd/duarouterConfiguration.xsd">

    <input>
        <net-file value="ciudad2x2.net.xml"/>
        <route-files value="ciudad2x2flows.xml"/>
    </input>

    <output>
        <output-file value="ciudad2x2.rou.xml"/>
        <alternatives-output value="ciudad2x2.rou.alt.xml"/>
    </output>

    <report>
        <xml-validation value="never"/>
        <no-step-log value="true"/>
    </report>

</configuration>
-->

<routes xmlns:xsi="http://www.w3.org/2001/XMLSchema-instance" xsi:noNamespaceSchemaLocation="http://sumo.dlr.de/xsd/routes_file.xsd">
    <vType id="Car" length="5.00" minGap="2.50" maxSpeed="16.67" guiShape="passenger" carFollowModel="IDM" accel="0.8" decel="4.5" tau="1.0"/>
    <vehicle id="flow1.0" type="Car" depart="0.00" color="red">
        <route edges="1to2 2to3 outr"/>
    </vehicle>
    <vehicle id="flow2.0" type="Car" depart="0.00" color="blue">
        <route edges="8to7 7to6 outl"/>
    </vehicle>
    <vehicle id="flow3.0" type="Car" depart="0.00" color="green">
        <route edges="9to2 2to6 outs"/>
    </vehicle>
    <vehicle id="flow4.0" type="Car" depart="0.00" color="yellow">
        <route edges="12to7 7to3 outn"/>
    </vehicle>
</routes>
