<?xml version="1.0" encoding="UTF-8"?>
<edges xmlns:xsi="http://www.w3.org/2001/XMLSchema-instance" xsi:noNamespaceSchemaLocation="http://sumo.dlr.de/xsd/edges_file.xsd">

   	<edge from="1"  id="1to2"  to="2" priority="78" numLanes="1" speed="19.444"/>
	<edge from="2"  id="2to3"  to="3" priority="78" numLanes="1" speed="19.444"/>
	<edge from="3"  id="3to4"  to="4" priority="78" numLanes="1" speed="19.444"/>
	<edge from="4"  id="4to5"  to="5" priority="78" numLanes="1" speed="19.444"/>
	<edge from="5"  id="5to6"  to="6" priority="78" numLanes="1" speed="19.444"/>
	<edge from="6"  id="6to7"  to="7" priority="78" numLanes="1" speed="19.444"/>
	<edge from="7"  id="7to8"  to="8" priority="78" numLanes="1" speed="19.444"/>
	<edge from="8"  id="8to9"  to="9" priority="78" numLanes="1" speed="19.444"/>
	<edge from="9"  id="9to10"  to="10" priority="78" numLanes="1" speed="19.444"/>
	<edge from="10"  id="10to11"  to="11" priority="78" numLanes="1" speed="19.444"/>
	<edge from="11"  id="outr1"  to="12" priority="78" numLanes="1" speed="19.444"/>
	<edge from="24"  id="24to23"  to="23" priority="78" numLanes="1" speed="19.444"/>
	<edge from="23"  id="23to22"  to="22" priority="78" numLanes="1" speed="19.444"/>
	<edge from="22"  id="22to21"  to="21" priority="78" numLanes="1" speed="19.444"/>
	<edge from="21"  id="21to20"  to="20" priority="78" numLanes="1" speed="19.444"/>
	<edge from="20"  id="20to19"  to="19" priority="78" numLanes="1" speed="19.444"/>
	<edge from="19"  id="19to18"  to="18" priority="78" numLanes="1" speed="19.444"/>
	<edge from="18"  id="18to17"  to="17" priority="78" numLanes="1" speed="19.444"/>
	<edge from="17"  id="17to16"  to="16" priority="78" numLanes="1" speed="19.444"/>
	<edge from="16"  id="16to15"  to="15" priority="78" numLanes="1" speed="19.444"/>
	<edge from="15"  id="15to14"  to="14" priority="78" numLanes="1" speed="19.444"/>
	<edge from="14"  id="outl1"  to="13" priority="78" numLanes="1" speed="19.444"/>
	<edge from="25"  id="25to26"  to="26" priority="78" numLanes="1" speed="19.444"/>
	<edge from="26"  id="26to27"  to="27" priority="78" numLanes="1" speed="19.444"/>
	<edge from="27"  id="27to28"  to="28" priority="78" numLanes="1" speed="19.444"/>
	<edge from="28"  id="28to29"  to="29" priority="78" numLanes="1" speed="19.444"/>
	<edge from="29"  id="29to30"  to="30" priority="78" numLanes="1" speed="19.444"/>
	<edge from="30"  id="30to31"  to="31" priority="78" numLanes="1" speed="19.444"/>
	<edge from="31"  id="31to32"  to="32" priority="78" numLanes="1" speed="19.444"/>
	<edge from="32"  id="32to33"  to="33" priority="78" numLanes="1" speed="19.444"/>
	<edge from="33"  id="33to34"  to="34" priority="78" numLanes="1" speed="19.444"/>
	<edge from="34"  id="34to35"  to="35" priority="78" numLanes="1" speed="19.444"/>
	<edge from="35"  id="outr2"  to="36" priority="78" numLanes="1" speed="19.444"/>
	<edge from="48"  id="48to47"  to="47" priority="78" numLanes="1" speed="19.444"/>
	<edge from="47"  id="47to46"  to="46" priority="78" numLanes="1" speed="19.444"/>
	<edge from="46"  id="46to45"  to="45" priority="78" numLanes="1" speed="19.444"/>
	<edge from="45"  id="45to44"  to="44" priority="78" numLanes="1" speed="19.444"/>
	<edge from="44"  id="44to43"  to="43" priority="78" numLanes="1" speed="19.444"/>
	<edge from="43"  id="43to42"  to="42" priority="78" numLanes="1" speed="19.444"/>
	<edge from="42"  id="42to41"  to="41" priority="78" numLanes="1" speed="19.444"/>
	<edge from="41"  id="41to40"  to="40" priority="78" numLanes="1" speed="19.444"/>
	<edge from="40"  id="40to39"  to="39" priority="78" numLanes="1" speed="19.444"/>
	<edge from="39"  id="39to38"  to="38" priority="78" numLanes="1" speed="19.444"/>
	<edge from="38"  id="outl2"  to="37" priority="78" numLanes="1" speed="19.444"/>
	<edge from="49"  id="49to50"  to="50" priority="78" numLanes="1" speed="19.444"/>
	<edge from="50"  id="50to51"  to="51" priority="78" numLanes="1" speed="19.444"/>
	<edge from="51"  id="51to52"  to="52" priority="78" numLanes="1" speed="19.444"/>
	<edge from="52"  id="52to53"  to="53" priority="78" numLanes="1" speed="19.444"/>
	<edge from="53"  id="53to54"  to="54" priority="78" numLanes="1" speed="19.444"/>
	<edge from="54"  id="54to55"  to="55" priority="78" numLanes="1" speed="19.444"/>
	<edge from="55"  id="55to56"  to="56" priority="78" numLanes="1" speed="19.444"/>
	<edge from="56"  id="56to57"  to="57" priority="78" numLanes="1" speed="19.444"/>
	<edge from="57"  id="57to58"  to="58" priority="78" numLanes="1" speed="19.444"/>
	<edge from="58"  id="58to59"  to="59" priority="78" numLanes="1" speed="19.444"/>
	<edge from="59"  id="outr3"  to="60" priority="78" numLanes="1" speed="19.444"/>
	<edge from="72"  id="72to71"  to="71" priority="78" numLanes="1" speed="19.444"/>
	<edge from="71"  id="71to70"  to="70" priority="78" numLanes="1" speed="19.444"/>
	<edge from="70"  id="70to69"  to="69" priority="78" numLanes="1" speed="19.444"/>
	<edge from="69"  id="69to68"  to="68" priority="78" numLanes="1" speed="19.444"/>
	<edge from="68"  id="68to67"  to="67" priority="78" numLanes="1" speed="19.444"/>
	<edge from="67"  id="67to66"  to="66" priority="78" numLanes="1" speed="19.444"/>
	<edge from="66"  id="66to65"  to="65" priority="78" numLanes="1" speed="19.444"/>
	<edge from="65"  id="65to64"  to="64" priority="78" numLanes="1" speed="19.444"/>
	<edge from="64"  id="64to63"  to="63" priority="78" numLanes="1" speed="19.444"/>
	<edge from="63"  id="63to62"  to="62" priority="78" numLanes="1" speed="19.444"/>
	<edge from="62"  id="outl3"  to="61" priority="78" numLanes="1" speed="19.444"/>
	<edge from="73"  id="73to74"  to="74" priority="78" numLanes="1" speed="19.444"/>
	<edge from="74"  id="74to75"  to="75" priority="78" numLanes="1" speed="19.444"/>
	<edge from="75"  id="75to46"  to="76" priority="78" numLanes="1" speed="19.444"/>
	<edge from="76"  id="76to77"  to="77" priority="78" numLanes="1" speed="19.444"/>
	<edge from="77"  id="77to78"  to="78" priority="78" numLanes="1" speed="19.444"/>
	<edge from="78"  id="78to79"  to="79" priority="78" numLanes="1" speed="19.444"/>
	<edge from="79"  id="79to80"  to="80" priority="78" numLanes="1" speed="19.444"/>
	<edge from="80"  id="80to81"  to="81" priority="78" numLanes="1" speed="19.444"/>
	<edge from="81"  id="81to82"  to="82" priority="78" numLanes="1" speed="19.444"/>
	<edge from="82"  id="82to83"  to="83" priority="78" numLanes="1" speed="19.444"/>
	<edge from="83"  id="outr4"  to="84" priority="78" numLanes="1" speed="19.444"/>
	<edge from="96"  id="96to95"  to="95" priority="78" numLanes="1" speed="19.444"/>
	<edge from="95"  id="95to94"  to="94" priority="78" numLanes="1" speed="19.444"/>
	<edge from="94"  id="94to93"  to="93" priority="78" numLanes="1" speed="19.444"/>
	<edge from="93"  id="93to92"  to="92" priority="78" numLanes="1" speed="19.444"/>
	<edge from="92"  id="92to91"  to="91" priority="78" numLanes="1" speed="19.444"/>
	<edge from="91"  id="91to90"  to="90" priority="78" numLanes="1" speed="19.444"/>
	<edge from="90"  id="90to89"  to="89" priority="78" numLanes="1" speed="19.444"/>
	<edge from="89"  id="89to88"  to="88" priority="78" numLanes="1" speed="19.444"/>
	<edge from="88"  id="88to87"  to="87" priority="78" numLanes="1" speed="19.444"/>
	<edge from="87"  id="87to86"  to="86" priority="78" numLanes="1" speed="19.444"/>
	<edge from="86"  id="outl4"  to="85" priority="78" numLanes="1" speed="19.444"/>
	<edge from="97"  id="97to98"  to="98" priority="78" numLanes="1" speed="19.444"/>
	<edge from="98"  id="98to99"  to="99" priority="78" numLanes="1" speed="19.444"/>
	<edge from="99"  id="99to100"  to="100" priority="78" numLanes="1" speed="19.444"/>
	<edge from="100"  id="100to101"  to="101" priority="78" numLanes="1" speed="19.444"/>
	<edge from="101"  id="101to102"  to="102" priority="78" numLanes="1" speed="19.444"/>
	<edge from="102"  id="102to103"  to="103" priority="78" numLanes="1" speed="19.444"/>
	<edge from="103"  id="103to104"  to="104" priority="78" numLanes="1" speed="19.444"/>
	<edge from="104"  id="104to105"  to="105" priority="78" numLanes="1" speed="19.444"/>
	<edge from="105"  id="105to106"  to="106" priority="78" numLanes="1" speed="19.444"/>
	<edge from="106"  id="106to107"  to="107" priority="78" numLanes="1" speed="19.444"/>
	<edge from="107"  id="outr5"  to="108" priority="78" numLanes="1" speed="19.444"/>
	<edge from="120"  id="120to119"  to="119" priority="78" numLanes="1" speed="19.444"/>
	<edge from="119"  id="119to118"  to="118" priority="78" numLanes="1" speed="19.444"/>
	<edge from="118"  id="118to117"  to="117" priority="78" numLanes="1" speed="19.444"/>
	<edge from="117"  id="117to116"  to="116" priority="78" numLanes="1" speed="19.444"/>
	<edge from="116"  id="116to115"  to="115" priority="78" numLanes="1" speed="19.444"/>
	<edge from="115"  id="115to114"  to="114" priority="78" numLanes="1" speed="19.444"/>
	<edge from="114"  id="114to113"  to="113" priority="78" numLanes="1" speed="19.444"/>
	<edge from="113"  id="113to112"  to="112" priority="78" numLanes="1" speed="19.444"/>
	<edge from="112"  id="112to111"  to="111" priority="78" numLanes="1" speed="19.444"/>
	<edge from="111"  id="111to110"  to="110" priority="78" numLanes="1" speed="19.444"/>
	<edge from="110"  id="outl5"  to="109" priority="78" numLanes="1" speed="19.444"/>
	<edge from="121"  id="121to2"  to="2" priority="78" numLanes="1" speed="19.444"/>
	<edge from="2"  id="2to14"  to="14" priority="78" numLanes="1" speed="19.444"/>
	<edge from="14"  id="14to26"  to="26" priority="78" numLanes="1" speed="19.444"/>
	<edge from="26"  id="26to38"  to="38" priority="78" numLanes="1" speed="19.444"/>
	<edge from="38"  id="38to50"  to="50" priority="78" numLanes="1" speed="19.444"/>
	<edge from="50"  id="40to62"  to="62" priority="78" numLanes="1" speed="19.444"/>
	<edge from="62"  id="62to74"  to="74" priority="78" numLanes="1" speed="19.444"/>
	<edge from="74"  id="74to86"  to="86" priority="78" numLanes="1" speed="19.444"/>
	<edge from="86"  id="86to98"  to="98" priority="78" numLanes="1" speed="19.444"/>
	<edge from="98"  id="98to110"  to="110" priority="78" numLanes="1" speed="19.444"/>
	<edge from="110"  id="outs1"  to="122" priority="78" numLanes="1" speed="19.444"/>
	<edge from="124"  id="124to111"  to="111" priority="78" numLanes="1" speed="19.444"/>
	<edge from="111"  id="111to99"  to="99" priority="78" numLanes="1" speed="19.444"/>
	<edge from="99"  id="99to87"  to="87" priority="78" numLanes="1" speed="19.444"/>
	<edge from="87"  id="87to75"  to="75" priority="78" numLanes="1" speed="19.444"/>
	<edge from="75"  id="75to63"  to="63" priority="78" numLanes="1" speed="19.444"/>
	<edge from="63"  id="63to51"  to="51" priority="78" numLanes="1" speed="19.444"/>
	<edge from="51"  id="51to39"  to="39" priority="78" numLanes="1" speed="19.444"/>
	<edge from="39"  id="39to27"  to="27" priority="78" numLanes="1" speed="19.444"/>
	<edge from="27"  id="27to15"  to="15" priority="78" numLanes="1" speed="19.444"/>
	<edge from="15"  id="15to3"  to="3" priority="78" numLanes="1" speed="19.444"/>
	<edge from="3"  id="outn1"  to="123" priority="78" numLanes="1" speed="19.444"/>
	<edge from="125"  id="125to4"  to="4" priority="78" numLanes="1" speed="19.444"/>
	<edge from="4"  id="4to16"  to="16" priority="78" numLanes="1" speed="19.444"/>
	<edge from="16"  id="16to28"  to="28" priority="78" numLanes="1" speed="19.444"/>
	<edge from="28"  id="28to40"  to="40" priority="78" numLanes="1" speed="19.444"/>
	<edge from="40"  id="40to52"  to="52" priority="78" numLanes="1" speed="19.444"/>
	<edge from="52"  id="52to64"  to="64" priority="78" numLanes="1" speed="19.444"/>
	<edge from="64"  id="64to76"  to="76" priority="78" numLanes="1" speed="19.444"/>
	<edge from="76"  id="76to88"  to="88" priority="78" numLanes="1" speed="19.444"/>
	<edge from="88"  id="88to100"  to="100" priority="78" numLanes="1" speed="19.444"/>
	<edge from="100"  id="100to112"  to="112" priority="78" numLanes="1" speed="19.444"/>
	<edge from="112"  id="outs2"  to="126" priority="78" numLanes="1" speed="19.444"/>
	<edge from="128"  id="128to113"  to="113" priority="78" numLanes="1" speed="19.444"/>
	<edge from="113"  id="113to101"  to="101" priority="78" numLanes="1" speed="19.444"/>
	<edge from="101"  id="101to89"  to="89" priority="78" numLanes="1" speed="19.444"/>
	<edge from="89"  id="89to77"  to="77" priority="78" numLanes="1" speed="19.444"/>
	<edge from="77"  id="77to65"  to="65" priority="78" numLanes="1" speed="19.444"/>
	<edge from="65"  id="65to53"  to="53" priority="78" numLanes="1" speed="19.444"/>
	<edge from="53"  id="53to41"  to="41" priority="78" numLanes="1" speed="19.444"/>
	<edge from="41"  id="41to29"  to="29" priority="78" numLanes="1" speed="19.444"/>
	<edge from="29"  id="29to17"  to="17" priority="78" numLanes="1" speed="19.444"/>
	<edge from="17"  id="17to5"  to="5" priority="78" numLanes="1" speed="19.444"/>
	<edge from="5"  id="outn2"  to="127" priority="78" numLanes="1" speed="19.444"/>
	<edge from="129"  id="129to6"  to="6" priority="78" numLanes="1" speed="19.444"/>
	<edge from="6"  id="6to18"  to="18" priority="78" numLanes="1" speed="19.444"/>
	<edge from="18"  id="18to30"  to="30" priority="78" numLanes="1" speed="19.444"/>
	<edge from="30"  id="30to42"  to="42" priority="78" numLanes="1" speed="19.444"/>
	<edge from="42"  id="42to54"  to="54" priority="78" numLanes="1" speed="19.444"/>
	<edge from="54"  id="54to66"  to="66" priority="78" numLanes="1" speed="19.444"/>
	<edge from="66"  id="66to78"  to="78" priority="78" numLanes="1" speed="19.444"/>
	<edge from="78"  id="78to90"  to="90" priority="78" numLanes="1" speed="19.444"/>
	<edge from="90"  id="90to102"  to="102" priority="78" numLanes="1" speed="19.444"/>
	<edge from="102"  id="102to114"  to="114" priority="78" numLanes="1" speed="19.444"/>
	<edge from="114"  id="outs3"  to="130" priority="78" numLanes="1" speed="19.444"/>
	<edge from="132"  id="132to115"  to="115" priority="78" numLanes="1" speed="19.444"/>
	<edge from="115"  id="115to103"  to="103" priority="78" numLanes="1" speed="19.444"/>
	<edge from="103"  id="103to91"  to="91" priority="78" numLanes="1" speed="19.444"/>
	<edge from="91"  id="91to79"  to="79" priority="78" numLanes="1" speed="19.444"/>
	<edge from="79"  id="79to67"  to="67" priority="78" numLanes="1" speed="19.444"/>
	<edge from="67"  id="67to55"  to="55" priority="78" numLanes="1" speed="19.444"/>
	<edge from="55"  id="55to43"  to="43" priority="78" numLanes="1" speed="19.444"/>
	<edge from="43"  id="43to31"  to="31" priority="78" numLanes="1" speed="19.444"/>
	<edge from="31"  id="31to19"  to="19" priority="78" numLanes="1" speed="19.444"/>
	<edge from="19"  id="19to7"  to="7" priority="78" numLanes="1" speed="19.444"/>
	<edge from="7"  id="outn3"  to="131" priority="78" numLanes="1" speed="19.444"/>
	<edge from="133"  id="133to8"  to="8" priority="78" numLanes="1" speed="19.444"/>
	<edge from="8"  id="8to20"  to="20" priority="78" numLanes="1" speed="19.444"/>
	<edge from="20"  id="20to32"  to="32" priority="78" numLanes="1" speed="19.444"/>
	<edge from="32"  id="32to44"  to="44" priority="78" numLanes="1" speed="19.444"/>
	<edge from="44"  id="44to56"  to="56" priority="78" numLanes="1" speed="19.444"/>
	<edge from="56"  id="56to68"  to="68" priority="78" numLanes="1" speed="19.444"/>
	<edge from="68"  id="68to80"  to="80" priority="78" numLanes="1" speed="19.444"/>
	<edge from="80"  id="80to92"  to="92" priority="78" numLanes="1" speed="19.444"/>
	<edge from="92"  id="92to104"  to="104" priority="78" numLanes="1" speed="19.444"/>
	<edge from="104"  id="104to116"  to="116" priority="78" numLanes="1" speed="19.444"/>
	<edge from="116"  id="outs4"  to="134" priority="78" numLanes="1" speed="19.444"/>
	<edge from="136"  id="136to117"  to="117" priority="78" numLanes="1" speed="19.444"/>
	<edge from="117"  id="117to105"  to="105" priority="78" numLanes="1" speed="19.444"/>
	<edge from="105"  id="105to93"  to="93" priority="78" numLanes="1" speed="19.444"/>
	<edge from="93"  id="93to81"  to="81" priority="78" numLanes="1" speed="19.444"/>
	<edge from="81"  id="81to69"  to="69" priority="78" numLanes="1" speed="19.444"/>
	<edge from="69"  id="69to57"  to="57" priority="78" numLanes="1" speed="19.444"/>
	<edge from="57"  id="57to45"  to="45" priority="78" numLanes="1" speed="19.444"/>
	<edge from="45"  id="45to33"  to="33" priority="78" numLanes="1" speed="19.444"/>
	<edge from="33"  id="33to21"  to="21" priority="78" numLanes="1" speed="19.444"/>
	<edge from="21"  id="21to9"  to="9" priority="78" numLanes="1" speed="19.444"/>
	<edge from="9"  id="outn4"  to="135" priority="78" numLanes="1" speed="19.444"/>
	<edge from="137"  id="137to10"  to="10" priority="78" numLanes="1" speed="19.444"/>
	<edge from="10"  id="10to22"  to="22" priority="78" numLanes="1" speed="19.444"/>
	<edge from="22"  id="22to34"  to="34" priority="78" numLanes="1" speed="19.444"/>
	<edge from="34"  id="34to46"  to="46" priority="78" numLanes="1" speed="19.444"/>
	<edge from="46"  id="46to58"  to="58" priority="78" numLanes="1" speed="19.444"/>
	<edge from="58"  id="58to70"  to="70" priority="78" numLanes="1" speed="19.444"/>
	<edge from="70"  id="70to82"  to="82" priority="78" numLanes="1" speed="19.444"/>
	<edge from="82"  id="82to94"  to="94" priority="78" numLanes="1" speed="19.444"/>
	<edge from="94"  id="94to106"  to="106" priority="78" numLanes="1" speed="19.444"/>
	<edge from="106"  id="106to118"  to="118" priority="78" numLanes="1" speed="19.444"/>
	<edge from="118"  id="outs5"  to="138" priority="78" numLanes="1" speed="19.444"/>
	<edge from="140"  id="140to119"  to="119" priority="78" numLanes="1" speed="19.444"/>
	<edge from="119"  id="119to107"  to="107" priority="78" numLanes="1" speed="19.444"/>
	<edge from="107"  id="107to95"  to="95" priority="78" numLanes="1" speed="19.444"/>
	<edge from="95"  id="95to83"  to="83" priority="78" numLanes="1" speed="19.444"/>
	<edge from="83"  id="83to71"  to="71" priority="78" numLanes="1" speed="19.444"/>
	<edge from="71"  id="71to59"  to="59" priority="78" numLanes="1" speed="19.444"/>
	<edge from="59"  id="59to47"  to="47" priority="78" numLanes="1" speed="19.444"/>
	<edge from="47"  id="47to35"  to="35" priority="78" numLanes="1" speed="19.444"/>
	<edge from="35"  id="35to23"  to="23" priority="78" numLanes="1" speed="19.444"/>
	<edge from="23"  id="23to11"  to="11" priority="78" numLanes="1" speed="19.444"/>
	<edge from="11"  id="outn5"  to="139" priority="78" numLanes="1" speed="19.444"/>
	
</edges>
