<routes>
      <vType id="Car" length="5.00" minGap="2.50" maxSpeed="16.67" guiShape="passenger" carFollowModel="IDM" accel="0.8" decel="4.5" tau="1.0"/>
            
    <route id="right1"  edges="1to2 2to3 3to4 4to5 5to6 outr1" />
    <route id="right2"  edges="15to16 16to17 17to18 18to19 19to20 outr2" />
    <route id="right3"  edges="29to30 30to31 31to32 32to33 33to34 outr3" />
    <route id="left1"  edges="14to13 13to12 12to11 11to10 10to9 outl1" />
    <route id="left2"  edges="28to27 27to26 26to25 25to24 24to23 outl2" />
    <route id="down1"  edges="36to2 2to9 9to16 16to23 23to30 outs1" />
    <route id="down2"  edges="40to4 4to11 11to18 18to25 25to32 outs2" />
    <route id="down3"  edges="44to6 6to13 13to20 20to27 27to34 outs3" />
    <route id="up1"  edges="39to31 31to24 24to17 17to10 10to3 outn1" />
    <route id="up2"  edges="43to33 33to26 26to19 19to12 12to5 outn2" />
    <vehicle id="right3_0" type="Car" color="yellow" route="right3" departSpeed="desired" depart="0" />
    <vehicle id="down3_1" type="Car" color="yellow" route="down3" departSpeed="desired" depart="0" />
    <vehicle id="right1_2" type="Car" color="yellow" route="right1" departSpeed="desired" depart="1" />
    <vehicle id="up2_3" type="Car" color="yellow" route="up2" departSpeed="desired" depart="1" />
    <vehicle id="right1_4" type="Car" color="yellow" route="right1" departSpeed="desired" depart="4" />
    <vehicle id="down1_5" type="Car" color="yellow" route="down1" departSpeed="desired" depart="4" />
    <vehicle id="up1_6" type="Car" color="yellow" route="up1" departSpeed="desired" depart="4" />
    <vehicle id="left2_7" type="Car" color="yellow" route="left2" departSpeed="desired" depart="4" />
    <vehicle id="right3_8" type="Car" color="yellow" route="right3" departSpeed="desired" depart="6" />
    <vehicle id="down2_9" type="Car" color="yellow" route="down2" departSpeed="desired" depart="6" />
    <vehicle id="left2_10" type="Car" color="yellow" route="left2" departSpeed="desired" depart="7" />
    <vehicle id="right1_11" type="Car" color="yellow" route="right1" departSpeed="desired" depart="8" />
    <vehicle id="up2_12" type="Car" color="yellow" route="up2" departSpeed="desired" depart="8" />
    <vehicle id="left2_13" type="Car" color="yellow" route="left2" departSpeed="desired" depart="10" />
    <vehicle id="right2_14" type="Car" color="yellow" route="right2" departSpeed="desired" depart="11" />
    <vehicle id="right3_15" type="Car" color="yellow" route="right3" departSpeed="desired" depart="11" />
    <vehicle id="down2_16" type="Car" color="yellow" route="down2" departSpeed="desired" depart="11" />
    <vehicle id="down2_17" type="Car" color="yellow" route="down2" departSpeed="desired" depart="13" />
    <vehicle id="right2_18" type="Car" color="yellow" route="right2" departSpeed="desired" depart="14" />
    <vehicle id="right1_19" type="Car" color="yellow" route="right1" departSpeed="desired" depart="15" />
    <vehicle id="left2_20" type="Car" color="yellow" route="left2" departSpeed="desired" depart="16" />
    <vehicle id="right1_21" type="Car" color="yellow" route="right1" departSpeed="desired" depart="17" />
    <vehicle id="left2_22" type="Car" color="yellow" route="left2" departSpeed="desired" depart="18" />
    <vehicle id="down1_23" type="Car" color="yellow" route="down1" departSpeed="desired" depart="19" />
    <vehicle id="left1_24" type="Car" color="yellow" route="left1" departSpeed="desired" depart="19" />
    <vehicle id="right1_25" type="Car" color="yellow" route="right1" departSpeed="desired" depart="23" />
    <vehicle id="right1_26" type="Car" color="yellow" route="right1" departSpeed="desired" depart="24" />
    <vehicle id="right1_27" type="Car" color="yellow" route="right1" departSpeed="desired" depart="27" />
    <vehicle id="left2_28" type="Car" color="yellow" route="left2" departSpeed="desired" depart="27" />
    <vehicle id="up2_29" type="Car" color="yellow" route="up2" departSpeed="desired" depart="28" />
    <vehicle id="right3_30_flaw" type="Car" color="blue" route="right3" departSpeed="desired" depart="31" />
    <vehicle id="up2_31" type="Car" color="yellow" route="up2" departSpeed="desired" depart="32" />
    <vehicle id="right2_32" type="Car" color="yellow" route="right2" departSpeed="desired" depart="34" />
    <vehicle id="up2_33" type="Car" color="yellow" route="up2" departSpeed="desired" depart="35" />
    <vehicle id="down3_34" type="Car" color="yellow" route="down3" departSpeed="desired" depart="38" />
    <vehicle id="up2_35" type="Car" color="yellow" route="up2" departSpeed="desired" depart="39" />
    <vehicle id="left1_36" type="Car" color="yellow" route="left1" departSpeed="desired" depart="39" />
    <vehicle id="left2_37" type="Car" color="yellow" route="left2" departSpeed="desired" depart="39" />
    <vehicle id="right2_38" type="Car" color="yellow" route="right2" departSpeed="desired" depart="40" />
    <vehicle id="left1_39" type="Car" color="yellow" route="left1" departSpeed="desired" depart="40" />
    <vehicle id="right3_40" type="Car" color="yellow" route="right3" departSpeed="desired" depart="41" />
    <vehicle id="down1_41" type="Car" color="yellow" route="down1" departSpeed="desired" depart="41" />
    <vehicle id="left2_42" type="Car" color="yellow" route="left2" departSpeed="desired" depart="42" />
    <vehicle id="right3_43" type="Car" color="yellow" route="right3" departSpeed="desired" depart="43" />
    <vehicle id="down1_44" type="Car" color="yellow" route="down1" departSpeed="desired" depart="44" />
    <vehicle id="down3_45" type="Car" color="yellow" route="down3" departSpeed="desired" depart="44" />
    <vehicle id="left2_46" type="Car" color="yellow" route="left2" departSpeed="desired" depart="45" />
    <vehicle id="right3_47" type="Car" color="yellow" route="right3" departSpeed="desired" depart="46" />
    <vehicle id="up2_48" type="Car" color="yellow" route="up2" departSpeed="desired" depart="47" />
    <vehicle id="left1_49" type="Car" color="yellow" route="left1" departSpeed="desired" depart="48" />
    <vehicle id="down2_50" type="Car" color="yellow" route="down2" departSpeed="desired" depart="50" />
    <vehicle id="right1_51" type="Car" color="yellow" route="right1" departSpeed="desired" depart="51" />
    <vehicle id="left2_52" type="Car" color="yellow" route="left2" departSpeed="desired" depart="51" />
    <vehicle id="right2_53" type="Car" color="yellow" route="right2" departSpeed="desired" depart="52" />
    <vehicle id="left2_54" type="Car" color="yellow" route="left2" departSpeed="desired" depart="52" />
    <vehicle id="right3_55" type="Car" color="yellow" route="right3" departSpeed="desired" depart="54" />
    <vehicle id="left2_56" type="Car" color="yellow" route="left2" departSpeed="desired" depart="56" />
    <vehicle id="down3_57" type="Car" color="yellow" route="down3" departSpeed="desired" depart="57" />
    <vehicle id="left2_58" type="Car" color="yellow" route="left2" departSpeed="desired" depart="58" />
    <vehicle id="down2_59" type="Car" color="yellow" route="down2" departSpeed="desired" depart="59" />
    <vehicle id="left2_60" type="Car" color="yellow" route="left2" departSpeed="desired" depart="59" />
    <vehicle id="right3_61" type="Car" color="yellow" route="right3" departSpeed="desired" depart="63" />
    <vehicle id="down2_62" type="Car" color="yellow" route="down2" departSpeed="desired" depart="64" />
    <vehicle id="down3_63" type="Car" color="yellow" route="down3" departSpeed="desired" depart="64" />
    <vehicle id="left1_64" type="Car" color="yellow" route="left1" departSpeed="desired" depart="65" />
    <vehicle id="down2_65" type="Car" color="yellow" route="down2" departSpeed="desired" depart="68" />
    <vehicle id="up2_66" type="Car" color="yellow" route="up2" departSpeed="desired" depart="68" />
    <vehicle id="left2_67" type="Car" color="yellow" route="left2" departSpeed="desired" depart="68" />
    <vehicle id="right2_68" type="Car" color="yellow" route="right2" departSpeed="desired" depart="69" />
    <vehicle id="right3_69" type="Car" color="yellow" route="right3" departSpeed="desired" depart="69" />
    <vehicle id="right1_70" type="Car" color="yellow" route="right1" departSpeed="desired" depart="74" />
    <vehicle id="up1_71" type="Car" color="yellow" route="up1" departSpeed="desired" depart="74" />
    <vehicle id="left1_72" type="Car" color="yellow" route="left1" departSpeed="desired" depart="74" />
    <vehicle id="right3_73" type="Car" color="yellow" route="right3" departSpeed="desired" depart="78" />
    <vehicle id="down1_74" type="Car" color="yellow" route="down1" departSpeed="desired" depart="78" />
    <vehicle id="right1_75" type="Car" color="yellow" route="right1" departSpeed="desired" depart="79" />
    <vehicle id="left2_76" type="Car" color="yellow" route="left2" departSpeed="desired" depart="80" />
    <vehicle id="left2_77" type="Car" color="yellow" route="left2" departSpeed="desired" depart="82" />
    <vehicle id="up2_78" type="Car" color="yellow" route="up2" departSpeed="desired" depart="84" />
    <vehicle id="up2_79" type="Car" color="yellow" route="up2" departSpeed="desired" depart="85" />
    <vehicle id="left2_80" type="Car" color="yellow" route="left2" departSpeed="desired" depart="85" />
    <vehicle id="down1_81" type="Car" color="yellow" route="down1" departSpeed="desired" depart="86" />
    <vehicle id="down3_82" type="Car" color="yellow" route="down3" departSpeed="desired" depart="87" />
    <vehicle id="up2_83" type="Car" color="yellow" route="up2" departSpeed="desired" depart="88" />
    <vehicle id="left1_84" type="Car" color="yellow" route="left1" departSpeed="desired" depart="88" />
    <vehicle id="right3_85" type="Car" color="yellow" route="right3" departSpeed="desired" depart="89" />
    <vehicle id="down2_86" type="Car" color="yellow" route="down2" departSpeed="desired" depart="89" />
    <vehicle id="up1_87" type="Car" color="yellow" route="up1" departSpeed="desired" depart="92" />
    <vehicle id="right1_88" type="Car" color="yellow" route="right1" departSpeed="desired" depart="94" />
    <vehicle id="left1_89" type="Car" color="yellow" route="left1" departSpeed="desired" depart="94" />
    <vehicle id="down1_90" type="Car" color="yellow" route="down1" departSpeed="desired" depart="95" />
    <vehicle id="right2_91" type="Car" color="yellow" route="right2" departSpeed="desired" depart="100" />
    <vehicle id="left2_92" type="Car" color="yellow" route="left2" departSpeed="desired" depart="102" />
    <vehicle id="down3_93" type="Car" color="yellow" route="down3" departSpeed="desired" depart="103" />
    <vehicle id="left2_94" type="Car" color="yellow" route="left2" departSpeed="desired" depart="103" />
    <vehicle id="right3_95" type="Car" color="yellow" route="right3" departSpeed="desired" depart="105" />
    <vehicle id="right1_96" type="Car" color="yellow" route="right1" departSpeed="desired" depart="108" />
    <vehicle id="up1_97" type="Car" color="yellow" route="up1" departSpeed="desired" depart="108" />
    <vehicle id="right3_98" type="Car" color="yellow" route="right3" departSpeed="desired" depart="109" />
    <vehicle id="down3_99" type="Car" color="yellow" route="down3" departSpeed="desired" depart="109" />
    <vehicle id="up2_100" type="Car" color="yellow" route="up2" departSpeed="desired" depart="109" />
    <vehicle id="up1_101" type="Car" color="yellow" route="up1" departSpeed="desired" depart="110" />
    <vehicle id="right1_102" type="Car" color="yellow" route="right1" departSpeed="desired" depart="113" />
    <vehicle id="up2_103" type="Car" color="yellow" route="up2" departSpeed="desired" depart="113" />
    <vehicle id="left2_104" type="Car" color="yellow" route="left2" departSpeed="desired" depart="114" />
    <vehicle id="up1_105" type="Car" color="yellow" route="up1" departSpeed="desired" depart="115" />
    <vehicle id="left1_106" type="Car" color="yellow" route="left1" departSpeed="desired" depart="116" />
    <vehicle id="down2_107" type="Car" color="yellow" route="down2" departSpeed="desired" depart="117" />
    <vehicle id="down3_108" type="Car" color="yellow" route="down3" departSpeed="desired" depart="117" />
    <vehicle id="left1_109" type="Car" color="yellow" route="left1" departSpeed="desired" depart="120" />
    <vehicle id="down1_110" type="Car" color="yellow" route="down1" departSpeed="desired" depart="121" />
    <vehicle id="up1_111" type="Car" color="yellow" route="up1" departSpeed="desired" depart="121" />
    <vehicle id="right3_112" type="Car" color="yellow" route="right3" departSpeed="desired" depart="123" />
    <vehicle id="down1_113" type="Car" color="yellow" route="down1" departSpeed="desired" depart="123" />
    <vehicle id="down2_114" type="Car" color="yellow" route="down2" departSpeed="desired" depart="124" />
    <vehicle id="up2_115_flaw" type="Car" color="blue" route="up2" departSpeed="desired" depart="125" />
    <vehicle id="up1_116" type="Car" color="yellow" route="up1" departSpeed="desired" depart="125" />
    <vehicle id="down1_117" type="Car" color="yellow" route="down1" departSpeed="desired" depart="127" />
    <vehicle id="left2_118" type="Car" color="yellow" route="left2" departSpeed="desired" depart="127" />
    <vehicle id="right2_119" type="Car" color="yellow" route="right2" departSpeed="desired" depart="128" />
    <vehicle id="down1_120" type="Car" color="yellow" route="down1" departSpeed="desired" depart="128" />
    <vehicle id="down3_121" type="Car" color="yellow" route="down3" departSpeed="desired" depart="128" />
    <vehicle id="up1_122" type="Car" color="yellow" route="up1" departSpeed="desired" depart="129" />
    <vehicle id="left2_123" type="Car" color="yellow" route="left2" departSpeed="desired" depart="131" />
    <vehicle id="right3_124" type="Car" color="yellow" route="right3" departSpeed="desired" depart="132" />
    <vehicle id="left1_125_flaw" type="Car" color="blue" route="left1" departSpeed="desired" depart="133" />
    <vehicle id="right3_126" type="Car" color="yellow" route="right3" departSpeed="desired" depart="133" />
    <vehicle id="left2_127" type="Car" color="yellow" route="left2" departSpeed="desired" depart="133" />
    <vehicle id="down2_128" type="Car" color="yellow" route="down2" departSpeed="desired" depart="134" />
    <vehicle id="left2_129" type="Car" color="yellow" route="left2" departSpeed="desired" depart="134" />
    <vehicle id="down3_130" type="Car" color="yellow" route="down3" departSpeed="desired" depart="136" />
    <vehicle id="up2_131" type="Car" color="yellow" route="up2" departSpeed="desired" depart="136" />
    <vehicle id="right3_132" type="Car" color="yellow" route="right3" departSpeed="desired" depart="137" />
    <vehicle id="left2_133" type="Car" color="yellow" route="left2" departSpeed="desired" depart="137" />
    <vehicle id="right1_134" type="Car" color="yellow" route="right1" departSpeed="desired" depart="139" />
    <vehicle id="down2_135" type="Car" color="yellow" route="down2" departSpeed="desired" depart="139" />
    <vehicle id="left2_136" type="Car" color="yellow" route="left2" departSpeed="desired" depart="140" />
    <vehicle id="down2_137" type="Car" color="yellow" route="down2" departSpeed="desired" depart="142" />
    <vehicle id="up2_138" type="Car" color="yellow" route="up2" departSpeed="desired" depart="142" />
    <vehicle id="down3_139" type="Car" color="yellow" route="down3" departSpeed="desired" depart="143" />
    <vehicle id="right1_140" type="Car" color="yellow" route="right1" departSpeed="desired" depart="144" />
    <vehicle id="right1_141" type="Car" color="yellow" route="right1" departSpeed="desired" depart="145" />
    <vehicle id="up1_142" type="Car" color="yellow" route="up1" departSpeed="desired" depart="145" />
    <vehicle id="down1_143" type="Car" color="yellow" route="down1" departSpeed="desired" depart="146" />
    <vehicle id="left2_144" type="Car" color="yellow" route="left2" departSpeed="desired" depart="146" />
    <vehicle id="down2_145" type="Car" color="yellow" route="down2" departSpeed="desired" depart="147" />
    <vehicle id="right3_146" type="Car" color="yellow" route="right3" departSpeed="desired" depart="149" />
    <vehicle id="down3_147" type="Car" color="yellow" route="down3" departSpeed="desired" depart="149" />
    <vehicle id="up2_148" type="Car" color="yellow" route="up2" departSpeed="desired" depart="149" />
    <vehicle id="right3_149" type="Car" color="yellow" route="right3" departSpeed="desired" depart="150" />
    <vehicle id="down2_150" type="Car" color="yellow" route="down2" departSpeed="desired" depart="150" />
    <vehicle id="right2_151" type="Car" color="yellow" route="right2" departSpeed="desired" depart="151" />
    <vehicle id="right1_152" type="Car" color="yellow" route="right1" departSpeed="desired" depart="153" />
    <vehicle id="up1_153" type="Car" color="yellow" route="up1" departSpeed="desired" depart="154" />
    <vehicle id="right1_154" type="Car" color="yellow" route="right1" departSpeed="desired" depart="157" />
    <vehicle id="right1_155" type="Car" color="yellow" route="right1" departSpeed="desired" depart="158" />
    <vehicle id="up2_156" type="Car" color="yellow" route="up2" departSpeed="desired" depart="158" />
    <vehicle id="right3_157" type="Car" color="yellow" route="right3" departSpeed="desired" depart="159" />
    <vehicle id="down3_158" type="Car" color="yellow" route="down3" departSpeed="desired" depart="159" />
    <vehicle id="left2_159" type="Car" color="yellow" route="left2" departSpeed="desired" depart="160" />
    <vehicle id="right1_160" type="Car" color="yellow" route="right1" departSpeed="desired" depart="161" />
    <vehicle id="down1_161" type="Car" color="yellow" route="down1" departSpeed="desired" depart="161" />
    <vehicle id="right1_162" type="Car" color="yellow" route="right1" departSpeed="desired" depart="162" />
    <vehicle id="right2_163" type="Car" color="yellow" route="right2" departSpeed="desired" depart="162" />
    <vehicle id="right3_164" type="Car" color="yellow" route="right3" departSpeed="desired" depart="164" />
    <vehicle id="down2_165" type="Car" color="yellow" route="down2" departSpeed="desired" depart="164" />
    <vehicle id="up2_166" type="Car" color="yellow" route="up2" departSpeed="desired" depart="165" />
    <vehicle id="left2_167" type="Car" color="yellow" route="left2" departSpeed="desired" depart="165" />
    <vehicle id="right2_168" type="Car" color="yellow" route="right2" departSpeed="desired" depart="167" />
    <vehicle id="left2_169" type="Car" color="yellow" route="left2" departSpeed="desired" depart="168" />
    <vehicle id="up1_170" type="Car" color="yellow" route="up1" departSpeed="desired" depart="170" />
    <vehicle id="down3_171" type="Car" color="yellow" route="down3" departSpeed="desired" depart="171" />
    <vehicle id="up1_172" type="Car" color="yellow" route="up1" departSpeed="desired" depart="171" />
    <vehicle id="down2_173" type="Car" color="yellow" route="down2" departSpeed="desired" depart="173" />
    <vehicle id="up1_174" type="Car" color="yellow" route="up1" departSpeed="desired" depart="175" />
    <vehicle id="down2_175" type="Car" color="yellow" route="down2" departSpeed="desired" depart="178" />
    <vehicle id="down3_176" type="Car" color="yellow" route="down3" departSpeed="desired" depart="178" />
    <vehicle id="right2_177" type="Car" color="yellow" route="right2" departSpeed="desired" depart="179" />
    <vehicle id="down2_178" type="Car" color="yellow" route="down2" departSpeed="desired" depart="179" />
    <vehicle id="up1_179" type="Car" color="yellow" route="up1" departSpeed="desired" depart="182" />
    <vehicle id="down1_180" type="Car" color="yellow" route="down1" departSpeed="desired" depart="183" />
    <vehicle id="down3_181" type="Car" color="yellow" route="down3" departSpeed="desired" depart="183" />
    <vehicle id="right1_182" type="Car" color="yellow" route="right1" departSpeed="desired" depart="184" />
    <vehicle id="left1_183" type="Car" color="yellow" route="left1" departSpeed="desired" depart="184" />
    <vehicle id="up1_184_flaw" type="Car" color="blue" route="up1" departSpeed="desired" depart="185" />
    <vehicle id="right3_185" type="Car" color="yellow" route="right3" departSpeed="desired" depart="185" />
    <vehicle id="down1_186" type="Car" color="yellow" route="down1" departSpeed="desired" depart="186" />
    <vehicle id="right1_187" type="Car" color="yellow" route="right1" departSpeed="desired" depart="187" />
    <vehicle id="left1_188" type="Car" color="yellow" route="left1" departSpeed="desired" depart="188" />
    <vehicle id="left2_189" type="Car" color="yellow" route="left2" departSpeed="desired" depart="188" />
    <vehicle id="down2_190" type="Car" color="yellow" route="down2" departSpeed="desired" depart="189" />
    <vehicle id="right1_191" type="Car" color="yellow" route="right1" departSpeed="desired" depart="190" />
    <vehicle id="right3_192" type="Car" color="yellow" route="right3" departSpeed="desired" depart="190" />
    <vehicle id="down2_193" type="Car" color="yellow" route="down2" departSpeed="desired" depart="190" />
    <vehicle id="up2_194" type="Car" color="yellow" route="up2" departSpeed="desired" depart="192" />
    <vehicle id="down2_195" type="Car" color="yellow" route="down2" departSpeed="desired" depart="193" />
    <vehicle id="right1_196" type="Car" color="yellow" route="right1" departSpeed="desired" depart="196" />
    <vehicle id="right2_197" type="Car" color="yellow" route="right2" departSpeed="desired" depart="197" />
    <vehicle id="down2_198" type="Car" color="yellow" route="down2" departSpeed="desired" depart="197" />
    <vehicle id="right3_199" type="Car" color="yellow" route="right3" departSpeed="desired" depart="198" />
    <vehicle id="down3_200" type="Car" color="yellow" route="down3" departSpeed="desired" depart="198" />
    <vehicle id="right1_201" type="Car" color="yellow" route="right1" departSpeed="desired" depart="199" />
    <vehicle id="right3_202" type="Car" color="yellow" route="right3" departSpeed="desired" depart="199" />
    <vehicle id="down2_203" type="Car" color="yellow" route="down2" departSpeed="desired" depart="199" />
    <vehicle id="up2_204" type="Car" color="yellow" route="up2" departSpeed="desired" depart="199" />
    <vehicle id="down1_205" type="Car" color="yellow" route="down1" departSpeed="desired" depart="200" />
    <vehicle id="right2_206" type="Car" color="yellow" route="right2" departSpeed="desired" depart="202" />
    <vehicle id="right1_207" type="Car" color="yellow" route="right1" departSpeed="desired" depart="204" />
    <vehicle id="right2_208" type="Car" color="yellow" route="right2" departSpeed="desired" depart="204" />
    <vehicle id="down1_209" type="Car" color="yellow" route="down1" departSpeed="desired" depart="208" />
    <vehicle id="up1_210" type="Car" color="yellow" route="up1" departSpeed="desired" depart="208" />
    <vehicle id="down2_211_flaw" type="Car" color="blue" route="down2" departSpeed="desired" depart="209" />
    <vehicle id="right1_212" type="Car" color="yellow" route="right1" departSpeed="desired" depart="210" />
    <vehicle id="down3_213_flaw" type="Car" color="blue" route="down3" departSpeed="desired" depart="211" />
    <vehicle id="right3_214" type="Car" color="yellow" route="right3" departSpeed="desired" depart="211" />
    <vehicle id="left2_215" type="Car" color="yellow" route="left2" departSpeed="desired" depart="211" />
    <vehicle id="up2_216" type="Car" color="yellow" route="up2" departSpeed="desired" depart="214" />
    <vehicle id="up2_217" type="Car" color="yellow" route="up2" departSpeed="desired" depart="215" />
    <vehicle id="left2_218" type="Car" color="yellow" route="left2" departSpeed="desired" depart="216" />
    <vehicle id="right2_219" type="Car" color="yellow" route="right2" departSpeed="desired" depart="217" />
    <vehicle id="left1_220" type="Car" color="yellow" route="left1" departSpeed="desired" depart="217" />
    <vehicle id="right2_221" type="Car" color="yellow" route="right2" departSpeed="desired" depart="219" />
    <vehicle id="down1_222" type="Car" color="yellow" route="down1" departSpeed="desired" depart="219" />
    <vehicle id="up2_223" type="Car" color="yellow" route="up2" departSpeed="desired" depart="221" />
    <vehicle id="left2_224" type="Car" color="yellow" route="left2" departSpeed="desired" depart="221" />
    <vehicle id="right1_225" type="Car" color="yellow" route="right1" departSpeed="desired" depart="222" />
    <vehicle id="left2_226" type="Car" color="yellow" route="left2" departSpeed="desired" depart="224" />
    <vehicle id="up2_227" type="Car" color="yellow" route="up2" departSpeed="desired" depart="226" />
    <vehicle id="left1_228" type="Car" color="yellow" route="left1" departSpeed="desired" depart="226" />
    <vehicle id="down2_229" type="Car" color="yellow" route="down2" departSpeed="desired" depart="227" />
    <vehicle id="up1_230" type="Car" color="yellow" route="up1" departSpeed="desired" depart="228" />
    <vehicle id="right3_231" type="Car" color="yellow" route="right3" departSpeed="desired" depart="229" />
    <vehicle id="left1_232" type="Car" color="yellow" route="left1" departSpeed="desired" depart="229" />
    <vehicle id="up2_233" type="Car" color="yellow" route="up2" departSpeed="desired" depart="231" />
    <vehicle id="right3_234" type="Car" color="yellow" route="right3" departSpeed="desired" depart="233" />
    <vehicle id="down2_235" type="Car" color="yellow" route="down2" departSpeed="desired" depart="235" />
    <vehicle id="right3_236" type="Car" color="yellow" route="right3" departSpeed="desired" depart="236" />
    <vehicle id="down2_237" type="Car" color="yellow" route="down2" departSpeed="desired" depart="236" />
    <vehicle id="down2_238" type="Car" color="yellow" route="down2" departSpeed="desired" depart="238" />
    <vehicle id="down1_239" type="Car" color="yellow" route="down1" departSpeed="desired" depart="239" />
    <vehicle id="up1_240" type="Car" color="yellow" route="up1" departSpeed="desired" depart="240" />
    <vehicle id="right2_241" type="Car" color="yellow" route="right2" departSpeed="desired" depart="241" />
    <vehicle id="left1_242" type="Car" color="yellow" route="left1" departSpeed="desired" depart="242" />
    <vehicle id="up1_243" type="Car" color="yellow" route="up1" departSpeed="desired" depart="244" />
    <vehicle id="left2_244" type="Car" color="yellow" route="left2" departSpeed="desired" depart="244" />
    <vehicle id="down3_245" type="Car" color="yellow" route="down3" departSpeed="desired" depart="246" />
    <vehicle id="right2_246" type="Car" color="yellow" route="right2" departSpeed="desired" depart="248" />
    <vehicle id="down1_247" type="Car" color="yellow" route="down1" departSpeed="desired" depart="248" />
    <vehicle id="right2_248" type="Car" color="yellow" route="right2" departSpeed="desired" depart="249" />
    <vehicle id="right1_249" type="Car" color="yellow" route="right1" departSpeed="desired" depart="251" />
    <vehicle id="down1_250" type="Car" color="yellow" route="down1" departSpeed="desired" depart="252" />
    <vehicle id="down1_251" type="Car" color="yellow" route="down1" departSpeed="desired" depart="255" />
    <vehicle id="down1_252" type="Car" color="yellow" route="down1" departSpeed="desired" depart="258" />
    <vehicle id="left2_253" type="Car" color="yellow" route="left2" departSpeed="desired" depart="259" />
    <vehicle id="up1_254" type="Car" color="yellow" route="up1" departSpeed="desired" depart="262" />
    <vehicle id="down1_255" type="Car" color="yellow" route="down1" departSpeed="desired" depart="264" />
    <vehicle id="right2_256" type="Car" color="yellow" route="right2" departSpeed="desired" depart="265" />
    <vehicle id="down2_257" type="Car" color="yellow" route="down2" departSpeed="desired" depart="265" />
    <vehicle id="down3_258" type="Car" color="yellow" route="down3" departSpeed="desired" depart="265" />
    <vehicle id="up2_259" type="Car" color="yellow" route="up2" departSpeed="desired" depart="265" />
    <vehicle id="down1_260" type="Car" color="yellow" route="down1" departSpeed="desired" depart="271" />
    <vehicle id="down2_261" type="Car" color="yellow" route="down2" departSpeed="desired" depart="272" />
    <vehicle id="up1_262" type="Car" color="yellow" route="up1" departSpeed="desired" depart="272" />
    <vehicle id="left2_263" type="Car" color="yellow" route="left2" departSpeed="desired" depart="273" />
    <vehicle id="right3_264" type="Car" color="yellow" route="right3" departSpeed="desired" depart="274" />
    <vehicle id="down1_265" type="Car" color="yellow" route="down1" departSpeed="desired" depart="275" />
    <vehicle id="down3_266" type="Car" color="yellow" route="down3" departSpeed="desired" depart="275" />
    <vehicle id="up2_267" type="Car" color="yellow" route="up2" departSpeed="desired" depart="275" />
    <vehicle id="right1_268" type="Car" color="yellow" route="right1" departSpeed="desired" depart="276" />
    <vehicle id="down2_269" type="Car" color="yellow" route="down2" departSpeed="desired" depart="277" />
    <vehicle id="down2_270" type="Car" color="yellow" route="down2" departSpeed="desired" depart="278" />
    <vehicle id="up1_271" type="Car" color="yellow" route="up1" departSpeed="desired" depart="279" />
    <vehicle id="down1_272" type="Car" color="yellow" route="down1" departSpeed="desired" depart="280" />
    <vehicle id="up2_273" type="Car" color="yellow" route="up2" departSpeed="desired" depart="281" />
    <vehicle id="up1_274" type="Car" color="yellow" route="up1" departSpeed="desired" depart="282" />
    <vehicle id="up1_275" type="Car" color="yellow" route="up1" departSpeed="desired" depart="283" />