<?xml version="1.0" encoding="UTF-8"?>

<!-- generated on Fri Jan  7 20:41:47 2022 by Eclipse SUMO netedit Version 1.6.0
<configuration xmlns:xsi="http://www.w3.org/2001/XMLSchema-instance" xsi:noNamespaceSchemaLocation="http://sumo.dlr.de/xsd/netconvertConfiguration.xsd">

    <input>
        <sumo-net-file value="/Users/cesarleonardogonzalezpinzon/Desktop/DIM_algorithms/Sumo-2x2/dim_sumo/data/ciudad4x4_semaforo.net.xml"/>
    </input>

    <output>
        <output-file value="/Users/cesarleonardogonzalezpinzon/Desktop/DIM_algorithms/Sumo-2x2/dim_sumo/data/ciudad4x4_semaforo.net.xml"/>
    </output>

    <processing>
        <geometry.min-radius.fix.railways value="false"/>
        <geometry.max-grade.fix value="false"/>
        <offset.disable-normalization value="true"/>
        <lefthand value="false"/>
    </processing>

    <junctions>
        <no-turnarounds value="true"/>
        <junctions.corner-detail value="5"/>
        <junctions.limit-turn-speed value="5.5"/>
        <rectangular-lane-cut value="false"/>
    </junctions>

    <pedestrian>
        <walkingareas value="false"/>
    </pedestrian>

    <report>
        <aggregate-warnings value="5"/>
    </report>

</configuration>
-->

<net version="1.6" junctionCornerDetail="5" limitTurnSpeed="5.50" xmlns:xsi="http://www.w3.org/2001/XMLSchema-instance" xsi:noNamespaceSchemaLocation="http://sumo.dlr.de/xsd/net_file.xsd">

    <location netOffset="1500.00,2000.00" convBoundary="0.00,0.00,2500.00,2500.00" origBoundary="-1500.00,-2000.00,1000.00,500.00" projParameter="!"/>

    <edge id=":10_0" function="internal">
        <lane id=":10_0_0" index="0" speed="6.51" length="9.03" shape="1498.40,1507.20 1498.05,1504.75 1497.00,1503.00 1495.25,1501.95 1492.80,1501.60"/>
    </edge>
    <edge id=":10_1" function="internal">
        <lane id=":10_1_0" index="0" speed="19.44" length="11.20" shape="1498.40,1507.20 1498.40,1496.00"/>
    </edge>
    <edge id=":10_2" function="internal">
        <lane id=":10_2_0" index="0" speed="19.44" length="11.20" shape="1504.00,1501.60 1492.80,1501.60"/>
    </edge>
    <edge id=":10_3" function="internal">
        <lane id=":10_3_0" index="0" speed="6.51" length="9.03" shape="1504.00,1501.60 1501.55,1501.25 1499.80,1500.20 1498.75,1498.45 1498.40,1496.00"/>
    </edge>
    <edge id=":11_0" function="internal">
        <lane id=":11_0_0" index="0" speed="6.51" length="9.03" shape="2007.20,1501.60 2004.75,1501.95 2003.00,1503.00 2001.95,1504.75 2001.60,1507.20"/>
    </edge>
    <edge id=":11_1" function="internal">
        <lane id=":11_1_0" index="0" speed="19.44" length="11.20" shape="2007.20,1501.60 1996.00,1501.60"/>
    </edge>
    <edge id=":11_2" function="internal">
        <lane id=":11_2_0" index="0" speed="19.44" length="11.20" shape="2001.60,1496.00 2001.60,1507.20"/>
    </edge>
    <edge id=":11_3" function="internal">
        <lane id=":11_3_0" index="0" speed="6.51" length="9.03" shape="2001.60,1496.00 2001.25,1498.45 2000.20,1500.20 1998.45,1501.25 1996.00,1501.60"/>
    </edge>
    <edge id=":14_0" function="internal">
        <lane id=":14_0_0" index="0" speed="19.44" length="11.20" shape="498.40,1004.00 498.40,992.80"/>
    </edge>
    <edge id=":14_1" function="internal">
        <lane id=":14_1_0" index="0" speed="6.51" length="9.03" shape="498.40,1004.00 498.75,1001.55 499.80,999.80 501.55,998.75 504.00,998.40"/>
    </edge>
    <edge id=":14_2" function="internal">
        <lane id=":14_2_0" index="0" speed="6.51" length="9.03" shape="492.80,998.40 495.25,998.05 497.00,997.00 498.05,995.25 498.40,992.80"/>
    </edge>
    <edge id=":14_3" function="internal">
        <lane id=":14_3_0" index="0" speed="19.44" length="11.20" shape="492.80,998.40 504.00,998.40"/>
    </edge>
    <edge id=":15_0" function="internal">
        <lane id=":15_0_0" index="0" speed="6.51" length="9.03" shape="1001.60,992.80 1001.95,995.25 1003.00,997.00 1004.75,998.05 1007.20,998.40"/>
    </edge>
    <edge id=":15_1" function="internal">
        <lane id=":15_1_0" index="0" speed="19.44" length="11.20" shape="1001.60,992.80 1001.60,1004.00"/>
    </edge>
    <edge id=":15_2" function="internal">
        <lane id=":15_2_0" index="0" speed="19.44" length="11.20" shape="996.00,998.40 1007.20,998.40"/>
    </edge>
    <edge id=":15_3" function="internal">
        <lane id=":15_3_0" index="0" speed="6.51" length="9.03" shape="996.00,998.40 998.45,998.75 1000.20,999.80 1001.25,1001.55 1001.60,1004.00"/>
    </edge>
    <edge id=":16_0" function="internal">
        <lane id=":16_0_0" index="0" speed="19.44" length="11.20" shape="1498.40,1004.00 1498.40,992.80"/>
    </edge>
    <edge id=":16_1" function="internal">
        <lane id=":16_1_0" index="0" speed="6.51" length="9.03" shape="1498.40,1004.00 1498.75,1001.55 1499.80,999.80 1501.55,998.75 1504.00,998.40"/>
    </edge>
    <edge id=":16_2" function="internal">
        <lane id=":16_2_0" index="0" speed="6.51" length="9.03" shape="1492.80,998.40 1495.25,998.05 1497.00,997.00 1498.05,995.25 1498.40,992.80"/>
    </edge>
    <edge id=":16_3" function="internal">
        <lane id=":16_3_0" index="0" speed="19.44" length="11.20" shape="1492.80,998.40 1504.00,998.40"/>
    </edge>
    <edge id=":17_0" function="internal">
        <lane id=":17_0_0" index="0" speed="6.51" length="9.03" shape="2001.60,992.80 2001.95,995.25 2003.00,997.00 2004.75,998.05 2007.20,998.40"/>
    </edge>
    <edge id=":17_1" function="internal">
        <lane id=":17_1_0" index="0" speed="19.44" length="11.20" shape="2001.60,992.80 2001.60,1004.00"/>
    </edge>
    <edge id=":17_2" function="internal">
        <lane id=":17_2_0" index="0" speed="19.44" length="11.20" shape="1996.00,998.40 2007.20,998.40"/>
    </edge>
    <edge id=":17_3" function="internal">
        <lane id=":17_3_0" index="0" speed="6.51" length="9.03" shape="1996.00,998.40 1998.45,998.75 2000.20,999.80 2001.25,1001.55 2001.60,1004.00"/>
    </edge>
    <edge id=":2_0" function="internal">
        <lane id=":2_0_0" index="0" speed="19.44" length="11.20" shape="498.40,2004.00 498.40,1992.80"/>
    </edge>
    <edge id=":2_1" function="internal">
        <lane id=":2_1_0" index="0" speed="6.51" length="9.03" shape="498.40,2004.00 498.75,2001.55 499.80,1999.80 501.55,1998.75 504.00,1998.40"/>
    </edge>
    <edge id=":2_2" function="internal">
        <lane id=":2_2_0" index="0" speed="6.51" length="9.03" shape="492.80,1998.40 495.25,1998.05 497.00,1997.00 498.05,1995.25 498.40,1992.80"/>
    </edge>
    <edge id=":2_3" function="internal">
        <lane id=":2_3_0" index="0" speed="19.44" length="11.20" shape="492.80,1998.40 504.00,1998.40"/>
    </edge>
    <edge id=":20_0" function="internal">
        <lane id=":20_0_0" index="0" speed="6.51" length="9.03" shape="498.40,507.20 498.05,504.75 497.00,503.00 495.25,501.95 492.80,501.60"/>
    </edge>
    <edge id=":20_1" function="internal">
        <lane id=":20_1_0" index="0" speed="19.44" length="11.20" shape="498.40,507.20 498.40,496.00"/>
    </edge>
    <edge id=":20_2" function="internal">
        <lane id=":20_2_0" index="0" speed="19.44" length="11.20" shape="504.00,501.60 492.80,501.60"/>
    </edge>
    <edge id=":20_3" function="internal">
        <lane id=":20_3_0" index="0" speed="6.51" length="9.03" shape="504.00,501.60 501.55,501.25 499.80,500.20 498.75,498.45 498.40,496.00"/>
    </edge>
    <edge id=":21_0" function="internal">
        <lane id=":21_0_0" index="0" speed="6.51" length="9.03" shape="1007.20,501.60 1004.75,501.95 1003.00,503.00 1001.95,504.75 1001.60,507.20"/>
    </edge>
    <edge id=":21_1" function="internal">
        <lane id=":21_1_0" index="0" speed="19.44" length="11.20" shape="1007.20,501.60 996.00,501.60"/>
    </edge>
    <edge id=":21_2" function="internal">
        <lane id=":21_2_0" index="0" speed="19.44" length="11.20" shape="1001.60,496.00 1001.60,507.20"/>
    </edge>
    <edge id=":21_3" function="internal">
        <lane id=":21_3_0" index="0" speed="6.51" length="9.03" shape="1001.60,496.00 1001.25,498.45 1000.20,500.20 998.45,501.25 996.00,501.60"/>
    </edge>
    <edge id=":22_0" function="internal">
        <lane id=":22_0_0" index="0" speed="6.51" length="9.03" shape="1498.40,507.20 1498.05,504.75 1497.00,503.00 1495.25,501.95 1492.80,501.60"/>
    </edge>
    <edge id=":22_1" function="internal">
        <lane id=":22_1_0" index="0" speed="19.44" length="11.20" shape="1498.40,507.20 1498.40,496.00"/>
    </edge>
    <edge id=":22_2" function="internal">
        <lane id=":22_2_0" index="0" speed="19.44" length="11.20" shape="1504.00,501.60 1492.80,501.60"/>
    </edge>
    <edge id=":22_3" function="internal">
        <lane id=":22_3_0" index="0" speed="6.51" length="9.03" shape="1504.00,501.60 1501.55,501.25 1499.80,500.20 1498.75,498.45 1498.40,496.00"/>
    </edge>
    <edge id=":23_0" function="internal">
        <lane id=":23_0_0" index="0" speed="6.51" length="9.03" shape="2007.20,501.60 2004.75,501.95 2003.00,503.00 2001.95,504.75 2001.60,507.20"/>
    </edge>
    <edge id=":23_1" function="internal">
        <lane id=":23_1_0" index="0" speed="19.44" length="11.20" shape="2007.20,501.60 1996.00,501.60"/>
    </edge>
    <edge id=":23_2" function="internal">
        <lane id=":23_2_0" index="0" speed="19.44" length="11.20" shape="2001.60,496.00 2001.60,507.20"/>
    </edge>
    <edge id=":23_3" function="internal">
        <lane id=":23_3_0" index="0" speed="6.51" length="9.03" shape="2001.60,496.00 2001.25,498.45 2000.20,500.20 1998.45,501.25 1996.00,501.60"/>
    </edge>
    <edge id=":3_0" function="internal">
        <lane id=":3_0_0" index="0" speed="6.51" length="9.03" shape="1001.60,1992.80 1001.95,1995.25 1003.00,1997.00 1004.75,1998.05 1007.20,1998.40"/>
    </edge>
    <edge id=":3_1" function="internal">
        <lane id=":3_1_0" index="0" speed="19.44" length="11.20" shape="1001.60,1992.80 1001.60,2004.00"/>
    </edge>
    <edge id=":3_2" function="internal">
        <lane id=":3_2_0" index="0" speed="19.44" length="11.20" shape="996.00,1998.40 1007.20,1998.40"/>
    </edge>
    <edge id=":3_3" function="internal">
        <lane id=":3_3_0" index="0" speed="6.51" length="9.03" shape="996.00,1998.40 998.45,1998.75 1000.20,1999.80 1001.25,2001.55 1001.60,2004.00"/>
    </edge>
    <edge id=":4_0" function="internal">
        <lane id=":4_0_0" index="0" speed="19.44" length="11.20" shape="1498.40,2004.00 1498.40,1992.80"/>
    </edge>
    <edge id=":4_1" function="internal">
        <lane id=":4_1_0" index="0" speed="6.51" length="9.03" shape="1498.40,2004.00 1498.75,2001.55 1499.80,1999.80 1501.55,1998.75 1504.00,1998.40"/>
    </edge>
    <edge id=":4_2" function="internal">
        <lane id=":4_2_0" index="0" speed="6.51" length="9.03" shape="1492.80,1998.40 1495.25,1998.05 1497.00,1997.00 1498.05,1995.25 1498.40,1992.80"/>
    </edge>
    <edge id=":4_3" function="internal">
        <lane id=":4_3_0" index="0" speed="19.44" length="11.20" shape="1492.80,1998.40 1504.00,1998.40"/>
    </edge>
    <edge id=":5_0" function="internal">
        <lane id=":5_0_0" index="0" speed="6.51" length="9.03" shape="2001.60,1992.80 2001.95,1995.25 2003.00,1997.00 2004.75,1998.05 2007.20,1998.40"/>
    </edge>
    <edge id=":5_1" function="internal">
        <lane id=":5_1_0" index="0" speed="19.44" length="11.20" shape="2001.60,1992.80 2001.60,2004.00"/>
    </edge>
    <edge id=":5_2" function="internal">
        <lane id=":5_2_0" index="0" speed="19.44" length="11.20" shape="1996.00,1998.40 2007.20,1998.40"/>
    </edge>
    <edge id=":5_3" function="internal">
        <lane id=":5_3_0" index="0" speed="6.51" length="9.03" shape="1996.00,1998.40 1998.45,1998.75 2000.20,1999.80 2001.25,2001.55 2001.60,2004.00"/>
    </edge>
    <edge id=":8_0" function="internal">
        <lane id=":8_0_0" index="0" speed="6.51" length="9.03" shape="498.40,1507.20 498.05,1504.75 497.00,1503.00 495.25,1501.95 492.80,1501.60"/>
    </edge>
    <edge id=":8_1" function="internal">
        <lane id=":8_1_0" index="0" speed="19.44" length="11.20" shape="498.40,1507.20 498.40,1496.00"/>
    </edge>
    <edge id=":8_2" function="internal">
        <lane id=":8_2_0" index="0" speed="19.44" length="11.20" shape="504.00,1501.60 492.80,1501.60"/>
    </edge>
    <edge id=":8_3" function="internal">
        <lane id=":8_3_0" index="0" speed="6.51" length="9.03" shape="504.00,1501.60 501.55,1501.25 499.80,1500.20 498.75,1498.45 498.40,1496.00"/>
    </edge>
    <edge id=":9_0" function="internal">
        <lane id=":9_0_0" index="0" speed="6.51" length="9.03" shape="1007.20,1501.60 1004.75,1501.95 1003.00,1503.00 1001.95,1504.75 1001.60,1507.20"/>
    </edge>
    <edge id=":9_1" function="internal">
        <lane id=":9_1_0" index="0" speed="19.44" length="11.20" shape="1007.20,1501.60 996.00,1501.60"/>
    </edge>
    <edge id=":9_2" function="internal">
        <lane id=":9_2_0" index="0" speed="19.44" length="11.20" shape="1001.60,1496.00 1001.60,1507.20"/>
    </edge>
    <edge id=":9_3" function="internal">
        <lane id=":9_3_0" index="0" speed="6.51" length="9.03" shape="1001.60,1496.00 1001.25,1498.45 1000.20,1500.20 998.45,1501.25 996.00,1501.60"/>
    </edge>

    <edge id="10to16" from="10" to="16" priority="78">
        <lane id="10to16_0" index="0" speed="19.44" length="492.00" shape="1498.40,1496.00 1498.40,1004.00"/>
    </edge>
    <edge id="10to9" from="10" to="9" priority="78">
        <lane id="10to9_0" index="0" speed="19.44" length="485.60" shape="1492.80,1501.60 1007.20,1501.60"/>
    </edge>
    <edge id="11to10" from="11" to="10" priority="78">
        <lane id="11to10_0" index="0" speed="19.44" length="492.00" shape="1996.00,1501.60 1504.00,1501.60"/>
    </edge>
    <edge id="11to5" from="11" to="5" priority="78">
        <lane id="11to5_0" index="0" speed="19.44" length="485.60" shape="2001.60,1507.20 2001.60,1992.80"/>
    </edge>
    <edge id="12to11" from="12" to="11" priority="78">
        <lane id="12to11_0" index="0" speed="19.44" length="492.80" shape="2500.00,1501.60 2007.20,1501.60"/>
    </edge>
    <edge id="13to14" from="13" to="14" priority="78">
        <lane id="13to14_0" index="0" speed="19.44" length="492.80" shape="0.00,998.40 492.80,998.40"/>
    </edge>
    <edge id="14to15" from="14" to="15" priority="78">
        <lane id="14to15_0" index="0" speed="19.44" length="492.00" shape="504.00,998.40 996.00,998.40"/>
    </edge>
    <edge id="14to20" from="14" to="20" priority="78">
        <lane id="14to20_0" index="0" speed="19.44" length="485.60" shape="498.40,992.80 498.40,507.20"/>
    </edge>
    <edge id="15to16" from="15" to="16" priority="78">
        <lane id="15to16_0" index="0" speed="19.44" length="485.60" shape="1007.20,998.40 1492.80,998.40"/>
    </edge>
    <edge id="15to9" from="15" to="9" priority="78">
        <lane id="15to9_0" index="0" speed="19.44" length="492.00" shape="1001.60,1004.00 1001.60,1496.00"/>
    </edge>
    <edge id="16to17" from="16" to="17" priority="78">
        <lane id="16to17_0" index="0" speed="19.44" length="492.00" shape="1504.00,998.40 1996.00,998.40"/>
    </edge>
    <edge id="16to22" from="16" to="22" priority="78">
        <lane id="16to22_0" index="0" speed="19.44" length="485.60" shape="1498.40,992.80 1498.40,507.20"/>
    </edge>
    <edge id="17to11" from="17" to="11" priority="78">
        <lane id="17to11_0" index="0" speed="19.44" length="492.00" shape="2001.60,1004.00 2001.60,1496.00"/>
    </edge>
    <edge id="1to2" from="1" to="2" priority="78">
        <lane id="1to2_0" index="0" speed="19.44" length="492.80" shape="0.00,1998.40 492.80,1998.40"/>
    </edge>
    <edge id="21to15" from="21" to="15" priority="78">
        <lane id="21to15_0" index="0" speed="19.44" length="485.60" shape="1001.60,507.20 1001.60,992.80"/>
    </edge>
    <edge id="21to20" from="21" to="20" priority="78">
        <lane id="21to20_0" index="0" speed="19.44" length="492.00" shape="996.00,501.60 504.00,501.60"/>
    </edge>
    <edge id="22to21" from="22" to="21" priority="78">
        <lane id="22to21_0" index="0" speed="19.44" length="485.60" shape="1492.80,501.60 1007.20,501.60"/>
    </edge>
    <edge id="23to17" from="23" to="17" priority="78">
        <lane id="23to17_0" index="0" speed="19.44" length="485.60" shape="2001.60,507.20 2001.60,992.80"/>
    </edge>
    <edge id="23to22" from="23" to="22" priority="78">
        <lane id="23to22_0" index="0" speed="19.44" length="492.00" shape="1996.00,501.60 1504.00,501.60"/>
    </edge>
    <edge id="24to23" from="24" to="23" priority="78">
        <lane id="24to23_0" index="0" speed="19.44" length="492.80" shape="2500.00,501.60 2007.20,501.60"/>
    </edge>
    <edge id="25to2" from="25" to="2" priority="78">
        <lane id="25to2_0" index="0" speed="19.44" length="496.00" shape="498.40,2500.00 498.40,2004.00"/>
    </edge>
    <edge id="28to21" from="28" to="21" priority="78">
        <lane id="28to21_0" index="0" speed="19.44" length="496.00" shape="1001.60,0.00 1001.60,496.00"/>
    </edge>
    <edge id="29to4" from="29" to="4" priority="78">
        <lane id="29to4_0" index="0" speed="19.44" length="496.00" shape="1498.40,2500.00 1498.40,2004.00"/>
    </edge>
    <edge id="2to3" from="2" to="3" priority="78">
        <lane id="2to3_0" index="0" speed="19.44" length="492.00" shape="504.00,1998.40 996.00,1998.40"/>
    </edge>
    <edge id="2to8" from="2" to="8" priority="78">
        <lane id="2to8_0" index="0" speed="19.44" length="485.60" shape="498.40,1992.80 498.40,1507.20"/>
    </edge>
    <edge id="32to23" from="32" to="23" priority="78">
        <lane id="32to23_0" index="0" speed="19.44" length="496.00" shape="2001.60,0.00 2001.60,496.00"/>
    </edge>
    <edge id="3to4" from="3" to="4" priority="78">
        <lane id="3to4_0" index="0" speed="19.44" length="485.60" shape="1007.20,1998.40 1492.80,1998.40"/>
    </edge>
    <edge id="4to10" from="4" to="10" priority="78">
        <lane id="4to10_0" index="0" speed="19.44" length="485.60" shape="1498.40,1992.80 1498.40,1507.20"/>
    </edge>
    <edge id="4to5" from="4" to="5" priority="78">
        <lane id="4to5_0" index="0" speed="19.44" length="492.00" shape="1504.00,1998.40 1996.00,1998.40"/>
    </edge>
    <edge id="8to14" from="8" to="14" priority="78">
        <lane id="8to14_0" index="0" speed="19.44" length="492.00" shape="498.40,1496.00 498.40,1004.00"/>
    </edge>
    <edge id="9to3" from="9" to="3" priority="78">
        <lane id="9to3_0" index="0" speed="19.44" length="485.60" shape="1001.60,1507.20 1001.60,1992.80"/>
    </edge>
    <edge id="9to8" from="9" to="8" priority="78">
        <lane id="9to8_0" index="0" speed="19.44" length="492.00" shape="996.00,1501.60 504.00,1501.60"/>
    </edge>
    <edge id="outl1" from="8" to="7" priority="78">
        <lane id="outl1_0" index="0" speed="19.44" length="492.80" shape="492.80,1501.60 0.00,1501.60"/>
    </edge>
    <edge id="outl2" from="20" to="19" priority="78">
        <lane id="outl2_0" index="0" speed="19.44" length="492.80" shape="492.80,501.60 0.00,501.60"/>
    </edge>
    <edge id="outn1" from="3" to="27" priority="78">
        <lane id="outn1_0" index="0" speed="19.44" length="496.00" shape="1001.60,2004.00 1001.60,2500.00"/>
    </edge>
    <edge id="outn2" from="5" to="31" priority="78">
        <lane id="outn2_0" index="0" speed="19.44" length="496.00" shape="2001.60,2004.00 2001.60,2500.00"/>
    </edge>
    <edge id="outr1" from="5" to="6" priority="78">
        <lane id="outr1_0" index="0" speed="19.44" length="492.80" shape="2007.20,1998.40 2500.00,1998.40"/>
    </edge>
    <edge id="outr2" from="17" to="18" priority="78">
        <lane id="outr2_0" index="0" speed="19.44" length="492.80" shape="2007.20,998.40 2500.00,998.40"/>
    </edge>
    <edge id="outs1" from="20" to="26" priority="78">
        <lane id="outs1_0" index="0" speed="19.44" length="496.00" shape="498.40,496.00 498.40,0.00"/>
    </edge>
    <edge id="outs2" from="22" to="30" priority="78">
        <lane id="outs2_0" index="0" speed="19.44" length="496.00" shape="1498.40,496.00 1498.40,0.00"/>
    </edge>

    <tlLogic id="10" type="static" programID="0" offset="0">
        <phase duration="40" state="GGrr"/>
        <phase duration="5"  state="yyrr"/>
        <phase duration="40" state="rrGG"/>
        <phase duration="5"  state="rryy"/>
    </tlLogic>
    <tlLogic id="11" type="static" programID="0" offset="0">
        <phase duration="40" state="GGrr"/>
        <phase duration="5"  state="yyrr"/>
        <phase duration="40" state="rrGG"/>
        <phase duration="5"  state="rryy"/>
    </tlLogic>
    <tlLogic id="14" type="static" programID="0" offset="0">
        <phase duration="40" state="GGrr"/>
        <phase duration="5"  state="yyrr"/>
        <phase duration="40" state="rrGG"/>
        <phase duration="5"  state="rryy"/>
    </tlLogic>
    <tlLogic id="15" type="static" programID="0" offset="0">
        <phase duration="40" state="GGrr"/>
        <phase duration="5"  state="yyrr"/>
        <phase duration="40" state="rrGG"/>
        <phase duration="5"  state="rryy"/>
    </tlLogic>
    <tlLogic id="16" type="static" programID="0" offset="0">
        <phase duration="40" state="GGrr"/>
        <phase duration="5"  state="yyrr"/>
        <phase duration="40" state="rrGG"/>
        <phase duration="5"  state="rryy"/>
    </tlLogic>
    <tlLogic id="17" type="static" programID="0" offset="0">
        <phase duration="40" state="GGrr"/>
        <phase duration="5"  state="yyrr"/>
        <phase duration="40" state="rrGG"/>
        <phase duration="5"  state="rryy"/>
    </tlLogic>
    <tlLogic id="2" type="static" programID="0" offset="0">
        <phase duration="40" state="GGrr"/>
        <phase duration="5"  state="yyrr"/>
        <phase duration="40" state="rrGG"/>
        <phase duration="5"  state="rryy"/>
    </tlLogic>
    <tlLogic id="20" type="static" programID="0" offset="0">
        <phase duration="40" state="GGrr"/>
        <phase duration="5"  state="yyrr"/>
        <phase duration="40" state="rrGG"/>
        <phase duration="5"  state="rryy"/>
    </tlLogic>
    <tlLogic id="21" type="static" programID="0" offset="0">
        <phase duration="40" state="GGrr"/>
        <phase duration="5"  state="yyrr"/>
        <phase duration="40" state="rrGG"/>
        <phase duration="5"  state="rryy"/>
    </tlLogic>
    <tlLogic id="22" type="static" programID="0" offset="0">
        <phase duration="40" state="GGrr"/>
        <phase duration="5"  state="yyrr"/>
        <phase duration="40" state="rrGG"/>
        <phase duration="5"  state="rryy"/>
    </tlLogic>
    <tlLogic id="23" type="static" programID="0" offset="0">
        <phase duration="40" state="GGrr"/>
        <phase duration="5"  state="yyrr"/>
        <phase duration="40" state="rrGG"/>
        <phase duration="5"  state="rryy"/>
    </tlLogic>
    <tlLogic id="3" type="static" programID="0" offset="0">
        <phase duration="40" state="GGrr"/>
        <phase duration="5"  state="yyrr"/>
        <phase duration="40" state="rrGG"/>
        <phase duration="5"  state="rryy"/>
    </tlLogic>
    <tlLogic id="4" type="static" programID="0" offset="0">
        <phase duration="40" state="GGrr"/>
        <phase duration="5"  state="yyrr"/>
        <phase duration="40" state="rrGG"/>
        <phase duration="5"  state="rryy"/>
    </tlLogic>
    <tlLogic id="5" type="static" programID="0" offset="0">
        <phase duration="40" state="GGrr"/>
        <phase duration="5"  state="yyrr"/>
        <phase duration="40" state="rrGG"/>
        <phase duration="5"  state="rryy"/>
    </tlLogic>
    <tlLogic id="8" type="static" programID="0" offset="0">
        <phase duration="40" state="GGrr"/>
        <phase duration="5"  state="yyrr"/>
        <phase duration="40" state="rrGG"/>
        <phase duration="5"  state="rryy"/>
    </tlLogic>
    <tlLogic id="9" type="static" programID="0" offset="0">
        <phase duration="40" state="GGrr"/>
        <phase duration="5"  state="yyrr"/>
        <phase duration="40" state="rrGG"/>
        <phase duration="5"  state="rryy"/>
    </tlLogic>

    <junction id="1" type="dead_end" x="0.00" y="2000.00" incLanes="" intLanes="" shape="0.00,2000.00 0.00,1996.80"/>
    <junction id="10" type="traffic_light" x="1500.00" y="1500.00" incLanes="4to10_0 11to10_0" intLanes=":10_0_0 :10_1_0 :10_2_0 :10_3_0" shape="1496.80,1507.20 1500.00,1507.20 1500.44,1504.98 1501.00,1504.20 1501.78,1503.64 1502.78,1503.31 1504.00,1503.20 1504.00,1500.00 1501.78,1499.56 1501.00,1499.00 1500.44,1498.22 1500.11,1497.22 1500.00,1496.00 1496.80,1496.00 1496.36,1498.22 1495.80,1499.00 1495.02,1499.56 1494.02,1499.89 1492.80,1500.00 1492.80,1503.20 1495.02,1503.64 1495.80,1504.20 1496.36,1504.98 1496.69,1505.98">
        <request index="0" response="0000" foes="0100" cont="0"/>
        <request index="1" response="0000" foes="1100" cont="0"/>
        <request index="2" response="0011" foes="0011" cont="0"/>
        <request index="3" response="0010" foes="0010" cont="0"/>
    </junction>
    <junction id="11" type="traffic_light" x="2000.00" y="1500.00" incLanes="12to11_0 17to11_0" intLanes=":11_0_0 :11_1_0 :11_2_0 :11_3_0" shape="2000.00,1507.20 2003.20,1507.20 2003.64,1504.98 2004.20,1504.20 2004.98,1503.64 2005.98,1503.31 2007.20,1503.20 2007.20,1500.00 2004.98,1499.56 2004.20,1499.00 2003.64,1498.22 2003.31,1497.22 2003.20,1496.00 2000.00,1496.00 1999.56,1498.22 1999.00,1499.00 1998.22,1499.56 1997.22,1499.89 1996.00,1500.00 1996.00,1503.20 1998.22,1503.64 1999.00,1504.20 1999.56,1504.98 1999.89,1505.98">
        <request index="0" response="0000" foes="0100" cont="0"/>
        <request index="1" response="0000" foes="1100" cont="0"/>
        <request index="2" response="0011" foes="0011" cont="0"/>
        <request index="3" response="0010" foes="0010" cont="0"/>
    </junction>
    <junction id="12" type="dead_end" x="2500.00" y="1500.00" incLanes="" intLanes="" shape="2500.00,1500.00 2500.00,1503.20"/>
    <junction id="13" type="dead_end" x="0.00" y="1000.00" incLanes="" intLanes="" shape="0.00,1000.00 0.00,996.80"/>
    <junction id="14" type="traffic_light" x="500.00" y="1000.00" incLanes="8to14_0 13to14_0" intLanes=":14_0_0 :14_1_0 :14_2_0 :14_3_0" shape="496.80,1004.00 500.00,1004.00 500.44,1001.78 501.00,1001.00 501.78,1000.44 502.78,1000.11 504.00,1000.00 504.00,996.80 501.78,996.36 501.00,995.80 500.44,995.02 500.11,994.02 500.00,992.80 496.80,992.80 496.36,995.02 495.80,995.80 495.02,996.36 494.02,996.69 492.80,996.80 492.80,1000.00 495.02,1000.44 495.80,1001.00 496.36,1001.78 496.69,1002.78">
        <request index="0" response="1100" foes="1100" cont="0"/>
        <request index="1" response="1000" foes="1000" cont="0"/>
        <request index="2" response="0000" foes="0001" cont="0"/>
        <request index="3" response="0000" foes="0011" cont="0"/>
    </junction>
    <junction id="15" type="traffic_light" x="1000.00" y="1000.00" incLanes="21to15_0 14to15_0" intLanes=":15_0_0 :15_1_0 :15_2_0 :15_3_0" shape="1000.00,1004.00 1003.20,1004.00 1003.64,1001.78 1004.20,1001.00 1004.98,1000.44 1005.98,1000.11 1007.20,1000.00 1007.20,996.80 1004.98,996.36 1004.20,995.80 1003.64,995.02 1003.31,994.02 1003.20,992.80 1000.00,992.80 999.56,995.02 999.00,995.80 998.22,996.36 997.22,996.69 996.00,996.80 996.00,1000.00 998.22,1000.44 999.00,1001.00 999.56,1001.78 999.89,1002.78">
        <request index="0" response="0000" foes="0100" cont="0"/>
        <request index="1" response="0000" foes="1100" cont="0"/>
        <request index="2" response="0011" foes="0011" cont="0"/>
        <request index="3" response="0010" foes="0010" cont="0"/>
    </junction>
    <junction id="16" type="traffic_light" x="1500.00" y="1000.00" incLanes="10to16_0 15to16_0" intLanes=":16_0_0 :16_1_0 :16_2_0 :16_3_0" shape="1496.80,1004.00 1500.00,1004.00 1500.44,1001.78 1501.00,1001.00 1501.78,1000.44 1502.78,1000.11 1504.00,1000.00 1504.00,996.80 1501.78,996.36 1501.00,995.80 1500.44,995.02 1500.11,994.02 1500.00,992.80 1496.80,992.80 1496.36,995.02 1495.80,995.80 1495.02,996.36 1494.02,996.69 1492.80,996.80 1492.80,1000.00 1495.02,1000.44 1495.80,1001.00 1496.36,1001.78 1496.69,1002.78">
        <request index="0" response="1100" foes="1100" cont="0"/>
        <request index="1" response="1000" foes="1000" cont="0"/>
        <request index="2" response="0000" foes="0001" cont="0"/>
        <request index="3" response="0000" foes="0011" cont="0"/>
    </junction>
    <junction id="17" type="traffic_light" x="2000.00" y="1000.00" incLanes="23to17_0 16to17_0" intLanes=":17_0_0 :17_1_0 :17_2_0 :17_3_0" shape="2000.00,1004.00 2003.20,1004.00 2003.64,1001.78 2004.20,1001.00 2004.98,1000.44 2005.98,1000.11 2007.20,1000.00 2007.20,996.80 2004.98,996.36 2004.20,995.80 2003.64,995.02 2003.31,994.02 2003.20,992.80 2000.00,992.80 1999.56,995.02 1999.00,995.80 1998.22,996.36 1997.22,996.69 1996.00,996.80 1996.00,1000.00 1998.22,1000.44 1999.00,1001.00 1999.56,1001.78 1999.89,1002.78">
        <request index="0" response="0000" foes="0100" cont="0"/>
        <request index="1" response="0000" foes="1100" cont="0"/>
        <request index="2" response="0011" foes="0011" cont="0"/>
        <request index="3" response="0010" foes="0010" cont="0"/>
    </junction>
    <junction id="18" type="dead_end" x="2500.00" y="1000.00" incLanes="outr2_0" intLanes="" shape="2500.00,996.80 2500.00,1000.00"/>
    <junction id="19" type="dead_end" x="0.00" y="500.00" incLanes="outl2_0" intLanes="" shape="0.00,503.20 0.00,500.00"/>