<!-- Aqui estamos generando uniones entre los nodos que describimos en el archivo .nod.xml - adiconalmente estamos indicando en que sentido va a ir el flujo que pasa por la union de los nodos -->

<edges>
	<edge from="1"  id="1to2"  to="2" />
	<edge from="2"  id="2to3"  to="3" />
	<edge from="3"  id="outr"  to="4" />
	<edge from="8"  id="8to7"  to="7" />
	<edge from="7"  id="7to6"  to="6" />
	<edge from="6"  id="outl"  to="5" />
	<edge from="9"  id="9to2"  to="2" />
	<edge from="2"  id="2to6"  to="6" />
	<edge from="6"  id="outs"  to="10" />
	<edge from="12" id="12to7" to="7" />
	<edge from="7"  id="7to3"  to="3" />
	<edge from="3"  id="outn"  to="11" />
</edges>	
