<routes>
      <vType id="Car" length="5.00" minGap="2.50" maxSpeed="16.67" guiShape="passenger" carFollowModel="IDM" accel="0.8" decel="4.5" tau="1.0"/>
            
    <route id="right1"  edges="1to2 2to3 3to4 4to5 5to6 outr1" />
    <route id="right2"  edges="15to16 16to17 17to18 18to19 19to20 outr2" />
    <route id="right3"  edges="29to30 30to31 31to32 32to33 33to34 outr3" />
    <route id="left1"  edges="14to13 13to12 12to11 11to10 10to9 outl1" />
    <route id="left2"  edges="28to27 27to26 26to25 25to24 24to23 outl2" />
    <route id="down1"  edges="36to2 2to9 9to16 16to23 23to30 outs1" />
    <route id="down2"  edges="40to4 4to11 11to18 18to25 25to32 outs2" />
    <route id="down3"  edges="44to6 6to13 13to20 20to27 27to34 outs3" />
    <route id="up1"  edges="39to31 31to24 24to17 17to10 10to3 outn1" />
    <route id="up2"  edges="43to33 33to26 26to19 19to12 12to5 outn2" />
    <vehicle id="right1_0" type="Car" color="yellow" route="right1" departSpeed="desired" depart="0" />
    <vehicle id="right2_1" type="Car" color="yellow" route="right2" departSpeed="desired" depart="0" />
    <vehicle id="right3_2" type="Car" color="yellow" route="right3" departSpeed="desired" depart="0" />
    <vehicle id="down3_3" type="Car" color="yellow" route="down3" departSpeed="desired" depart="0" />
    <vehicle id="up2_4" type="Car" color="yellow" route="up2" departSpeed="desired" depart="0" />
    <vehicle id="left1_5" type="Car" color="yellow" route="left1" departSpeed="desired" depart="0" />
    <vehicle id="left2_6" type="Car" color="yellow" route="left2" departSpeed="desired" depart="0" />
    <vehicle id="right1_7" type="Car" color="yellow" route="right1" departSpeed="desired" depart="1" />
    <vehicle id="right2_8" type="Car" color="yellow" route="right2" departSpeed="desired" depart="1" />
    <vehicle id="right3_9" type="Car" color="yellow" route="right3" departSpeed="desired" depart="1" />
    <vehicle id="down1_10" type="Car" color="yellow" route="down1" departSpeed="desired" depart="1" />
    <vehicle id="down2_11" type="Car" color="yellow" route="down2" departSpeed="desired" depart="1" />
    <vehicle id="down3_12" type="Car" color="yellow" route="down3" departSpeed="desired" depart="1" />
    <vehicle id="up1_13" type="Car" color="yellow" route="up1" departSpeed="desired" depart="1" />
    <vehicle id="up2_14" type="Car" color="yellow" route="up2" departSpeed="desired" depart="1" />
    <vehicle id="left1_15" type="Car" color="yellow" route="left1" departSpeed="desired" depart="1" />
    <vehicle id="left2_16" type="Car" color="yellow" route="left2" departSpeed="desired" depart="1" />
    <vehicle id="right1_17" type="Car" color="yellow" route="right1" departSpeed="desired" depart="2" />
    <vehicle id="right2_18" type="Car" color="yellow" route="right2" departSpeed="desired" depart="2" />
    <vehicle id="right3_19" type="Car" color="yellow" route="right3" departSpeed="desired" depart="2" />
    <vehicle id="down1_20" type="Car" color="yellow" route="down1" departSpeed="desired" depart="2" />
    <vehicle id="down2_21" type="Car" color="yellow" route="down2" departSpeed="desired" depart="2" />
    <vehicle id="down3_22" type="Car" color="yellow" route="down3" departSpeed="desired" depart="2" />
    <vehicle id="up1_23" type="Car" color="yellow" route="up1" departSpeed="desired" depart="2" />
    <vehicle id="left1_24" type="Car" color="yellow" route="left1" departSpeed="desired" depart="2" />
    <vehicle id="right1_25" type="Car" color="yellow" route="right1" departSpeed="desired" depart="3" />
    <vehicle id="right2_26" type="Car" color="yellow" route="right2" departSpeed="desired" depart="3" />
    <vehicle id="right3_27" type="Car" color="yellow" route="right3" departSpeed="desired" depart="3" />
    <vehicle id="down2_28" type="Car" color="yellow" route="down2" departSpeed="desired" depart="3" />
    <vehicle id="up1_29" type="Car" color="yellow" route="up1" departSpeed="desired" depart="3" />
    <vehicle id="up2_30" type="Car" color="yellow" route="up2" departSpeed="desired" depart="3" />
    <vehicle id="left1_31" type="Car" color="yellow" route="left1" departSpeed="desired" depart="3" />
    <vehicle id="left2_32" type="Car" color="yellow" route="left2" departSpeed="desired" depart="3" />
    <vehicle id="right1_33" type="Car" color="yellow" route="right1" departSpeed="desired" depart="4" />
    <vehicle id="right2_34" type="Car" color="yellow" route="right2" departSpeed="desired" depart="4" />
    <vehicle id="right3_35" type="Car" color="yellow" route="right3" departSpeed="desired" depart="4" />
    <vehicle id="down1_36" type="Car" color="yellow" route="down1" departSpeed="desired" depart="4" />
    <vehicle id="down2_37" type="Car" color="yellow" route="down2" departSpeed="desired" depart="4" />
    <vehicle id="down3_38" type="Car" color="yellow" route="down3" departSpeed="desired" depart="4" />
    <vehicle id="up1_39" type="Car" color="yellow" route="up1" departSpeed="desired" depart="4" />
    <vehicle id="up2_40" type="Car" color="yellow" route="up2" departSpeed="desired" depart="4" />
    <vehicle id="left1_41" type="Car" color="yellow" route="left1" departSpeed="desired" depart="4" />
    <vehicle id="left2_42" type="Car" color="yellow" route="left2" departSpeed="desired" depart="4" />
    <vehicle id="right1_43" type="Car" color="yellow" route="right1" departSpeed="desired" depart="5" />
    <vehicle id="right2_44" type="Car" color="yellow" route="right2" departSpeed="desired" depart="5" />
    <vehicle id="right3_45" type="Car" color="yellow" route="right3" departSpeed="desired" depart="5" />
    <vehicle id="down1_46" type="Car" color="yellow" route="down1" departSpeed="desired" depart="5" />
    <vehicle id="down2_47" type="Car" color="yellow" route="down2" departSpeed="desired" depart="5" />
    <vehicle id="down3_48" type="Car" color="yellow" route="down3" departSpeed="desired" depart="5" />
    <vehicle id="up1_49" type="Car" color="yellow" route="up1" departSpeed="desired" depart="5" />
    <vehicle id="up2_50" type="Car" color="yellow" route="up2" departSpeed="desired" depart="5" />
    <vehicle id="left1_51" type="Car" color="yellow" route="left1" departSpeed="desired" depart="5" />
    <vehicle id="left2_52" type="Car" color="yellow" route="left2" departSpeed="desired" depart="5" />
    <vehicle id="right1_53" type="Car" color="yellow" route="right1" departSpeed="desired" depart="6" />
    <vehicle id="right3_54" type="Car" color="yellow" route="right3" departSpeed="desired" depart="6" />
    <vehicle id="down1_55" type="Car" color="yellow" route="down1" departSpeed="desired" depart="6" />
    <vehicle id="down2_56" type="Car" color="yellow" route="down2" departSpeed="desired" depart="6" />
    <vehicle id="down3_57" type="Car" color="yellow" route="down3" departSpeed="desired" depart="6" />
    <vehicle id="up1_58" type="Car" color="yellow" route="up1" departSpeed="desired" depart="6" />
    <vehicle id="up2_59" type="Car" color="yellow" route="up2" departSpeed="desired" depart="6" />
    <vehicle id="left2_60" type="Car" color="yellow" route="left2" departSpeed="desired" depart="6" />
    <vehicle id="right1_61" type="Car" color="yellow" route="right1" departSpeed="desired" depart="7" />
    <vehicle id="right2_62" type="Car" color="yellow" route="right2" departSpeed="desired" depart="7" />
    <vehicle id="right3_63" type="Car" color="yellow" route="right3" departSpeed="desired" depart="7" />
    <vehicle id="down1_64" type="Car" color="yellow" route="down1" departSpeed="desired" depart="7" />
    <vehicle id="down3_65" type="Car" color="yellow" route="down3" departSpeed="desired" depart="7" />
    <vehicle id="up2_66" type="Car" color="yellow" route="up2" departSpeed="desired" depart="7" />
    <vehicle id="left1_67" type="Car" color="yellow" route="left1" departSpeed="desired" depart="7" />
    <vehicle id="left2_68" type="Car" color="yellow" route="left2" departSpeed="desired" depart="7" />
    <vehicle id="right1_69" type="Car" color="yellow" route="right1" departSpeed="desired" depart="8" />
    <vehicle id="right2_70" type="Car" color="yellow" route="right2" departSpeed="desired" depart="8" />
    <vehicle id="right3_71" type="Car" color="yellow" route="right3" departSpeed="desired" depart="8" />
    <vehicle id="down1_72" type="Car" color="yellow" route="down1" departSpeed="desired" depart="8" />
    <vehicle id="down2_73" type="Car" color="yellow" route="down2" departSpeed="desired" depart="8" />
    <vehicle id="down3_74" type="Car" color="yellow" route="down3" departSpeed="desired" depart="8" />
    <vehicle id="up1_75" type="Car" color="yellow" route="up1" departSpeed="desired" depart="8" />
    <vehicle id="up2_76" type="Car" color="yellow" route="up2" departSpeed="desired" depart="8" />
    <vehicle id="left1_77" type="Car" color="yellow" route="left1" departSpeed="desired" depart="8" />
    <vehicle id="right1_78" type="Car" color="yellow" route="right1" departSpeed="desired" depart="9" />
    <vehicle id="right2_79" type="Car" color="yellow" route="right2" departSpeed="desired" depart="9" />
    <vehicle id="right3_80" type="Car" color="yellow" route="right3" departSpeed="desired" depart="9" />
    <vehicle id="down1_81" type="Car" color="yellow" route="down1" departSpeed="desired" depart="9" />
    <vehicle id="down2_82" type="Car" color="yellow" route="down2" departSpeed="desired" depart="9" />
    <vehicle id="down3_83" type="Car" color="yellow" route="down3" departSpeed="desired" depart="9" />
    <vehicle id="up1_84" type="Car" color="yellow" route="up1" departSpeed="desired" depart="9" />
    <vehicle id="up2_85" type="Car" color="yellow" route="up2" departSpeed="desired" depart="9" />
    <vehicle id="left1_86" type="Car" color="yellow" route="left1" departSpeed="desired" depart="9" />
    <vehicle id="left2_87" type="Car" color="yellow" route="left2" departSpeed="desired" depart="9" />
    <vehicle id="right1_88" type="Car" color="yellow" route="right1" departSpeed="desired" depart="10" />
    <vehicle id="right2_89" type="Car" color="yellow" route="right2" departSpeed="desired" depart="10" />
    <vehicle id="right3_90" type="Car" color="yellow" route="right3" departSpeed="desired" depart="10" />
    <vehicle id="down2_91" type="Car" color="yellow" route="down2" departSpeed="desired" depart="10" />
    <vehicle id="down3_92" type="Car" color="yellow" route="down3" departSpeed="desired" depart="10" />
    <vehicle id="up1_93" type="Car" color="yellow" route="up1" departSpeed="desired" depart="10" />
    <vehicle id="up2_94" type="Car" color="yellow" route="up2" departSpeed="desired" depart="10" />
    <vehicle id="left1_95" type="Car" color="yellow" route="left1" departSpeed="desired" depart="10" />
    <vehicle id="left2_96" type="Car" color="yellow" route="left2" departSpeed="desired" depart="10" />
    <vehicle id="right1_97" type="Car" color="yellow" route="right1" departSpeed="desired" depart="11" />
    <vehicle id="right2_98" type="Car" color="yellow" route="right2" departSpeed="desired" depart="11" />
    <vehicle id="right3_99" type="Car" color="yellow" route="right3" departSpeed="desired" depart="11" />
    <vehicle id="down1_100" type="Car" color="yellow" route="down1" departSpeed="desired" depart="11" />
    <vehicle id="down2_101" type="Car" color="yellow" route="down2" departSpeed="desired" depart="11" />
    <vehicle id="down3_102" type="Car" color="yellow" route="down3" departSpeed="desired" depart="11" />
    <vehicle id="up2_103" type="Car" color="yellow" route="up2" departSpeed="desired" depart="11" />
    <vehicle id="left2_104" type="Car" color="yellow" route="left2" departSpeed="desired" depart="11" />
    <vehicle id="right1_105" type="Car" color="yellow" route="right1" departSpeed="desired" depart="12" />
    <vehicle id="right2_106" type="Car" color="yellow" route="right2" departSpeed="desired" depart="12" />
    <vehicle id="right3_107" type="Car" color="yellow" route="right3" departSpeed="desired" depart="12" />
    <vehicle id="down1_108" type="Car" color="yellow" route="down1" departSpeed="desired" depart="12" />
    <vehicle id="down2_109" type="Car" color="yellow" route="down2" departSpeed="desired" depart="12" />
    <vehicle id="down3_110" type="Car" color="yellow" route="down3" departSpeed="desired" depart="12" />
    <vehicle id="up1_111" type="Car" color="yellow" route="up1" departSpeed="desired" depart="12" />
    <vehicle id="up2_112" type="Car" color="yellow" route="up2" departSpeed="desired" depart="12" />
    <vehicle id="left1_113" type="Car" color="yellow" route="left1" departSpeed="desired" depart="12" />
    <vehicle id="left2_114" type="Car" color="yellow" route="left2" departSpeed="desired" depart="12" />
    <vehicle id="right1_115" type="Car" color="yellow" route="right1" departSpeed="desired" depart="13" />
    <vehicle id="right2_116" type="Car" color="yellow" route="right2" departSpeed="desired" depart="13" />
    <vehicle id="right3_117" type="Car" color="yellow" route="right3" departSpeed="desired" depart="13" />
    <vehicle id="down1_118" type="Car" color="yellow" route="down1" departSpeed="desired" depart="13" />
    <vehicle id="down2_119" type="Car" color="yellow" route="down2" departSpeed="desired" depart="13" />
    <vehicle id="down3_120" type="Car" color="yellow" route="down3" departSpeed="desired" depart="13" />
    <vehicle id="up1_121" type="Car" color="yellow" route="up1" departSpeed="desired" depart="13" />
    <vehicle id="left1_122" type="Car" color="yellow" route="left1" departSpeed="desired" depart="13" />
    <vehicle id="left2_123" type="Car" color="yellow" route="left2" departSpeed="desired" depart="13" />
    <vehicle id="right1_124" type="Car" color="yellow" route="right1" departSpeed="desired" depart="14" />
    <vehicle id="right2_125" type="Car" color="yellow" route="right2" departSpeed="desired" depart="14" />
    <vehicle id="right3_126" type="Car" color="yellow" route="right3" departSpeed="desired" depart="14" />
    <vehicle id="down1_127" type="Car" color="yellow" route="down1" departSpeed="desired" depart="14" />
    <vehicle id="up1_128" type="Car" color="yellow" route="up1" departSpeed="desired" depart="14" />
    <vehicle id="up2_129" type="Car" color="yellow" route="up2" departSpeed="desired" depart="14" />
    <vehicle id="left1_130" type="Car" color="yellow" route="left1" departSpeed="desired" depart="14" />
    <vehicle id="right1_131" type="Car" color="yellow" route="right1" departSpeed="desired" depart="15" />
    <vehicle id="right2_132" type="Car" color="yellow" route="right2" departSpeed="desired" depart="15" />
    <vehicle id="right3_133" type="Car" color="yellow" route="right3" departSpeed="desired" depart="15" />
    <vehicle id="down2_134" type="Car" color="yellow" route="down2" departSpeed="desired" depart="15" />
    <vehicle id="up1_135" type="Car" color="yellow" route="up1" departSpeed="desired" depart="15" />
    <vehicle id="up2_136" type="Car" color="yellow" route="up2" departSpeed="desired" depart="15" />
    <vehicle id="left1_137" type="Car" color="yellow" route="left1" departSpeed="desired" depart="15" />
    <vehicle id="left2_138" type="Car" color="yellow" route="left2" departSpeed="desired" depart="15" />
    <vehicle id="right1_139" type="Car" color="yellow" route="right1" departSpeed="desired" depart="16" />
    <vehicle id="right2_140" type="Car" color="yellow" route="right2" departSpeed="desired" depart="16" />
    <vehicle id="right3_141" type="Car" color="yellow" route="right3" departSpeed="desired" depart="16" />
    <vehicle id="down3_142" type="Car" color="yellow" route="down3" departSpeed="desired" depart="16" />
    <vehicle id="up1_143" type="Car" color="yellow" route="up1" departSpeed="desired" depart="16" />
    <vehicle id="left1_144" type="Car" color="yellow" route="left1" departSpeed="desired" depart="16" />
    <vehicle id="left2_145" type="Car" color="yellow" route="left2" departSpeed="desired" depart="16" />
    <vehicle id="right1_146" type="Car" color="yellow" route="right1" departSpeed="desired" depart="17" />
    <vehicle id="right2_147" type="Car" color="yellow" route="right2" departSpeed="desired" depart="17" />
    <vehicle id="right3_148" type="Car" color="yellow" route="right3" departSpeed="desired" depart="17" />
    <vehicle id="down1_149" type="Car" color="yellow" route="down1" departSpeed="desired" depart="17" />
    <vehicle id="down2_150" type="Car" color="yellow" route="down2" departSpeed="desired" depart="17" />
    <vehicle id="down3_151" type="Car" color="yellow" route="down3" departSpeed="desired" depart="17" />
    <vehicle id="up1_152" type="Car" color="yellow" route="up1" departSpeed="desired" depart="17" />
    <vehicle id="up2_153" type="Car" color="yellow" route="up2" departSpeed="desired" depart="17" />
    <vehicle id="left1_154" type="Car" color="yellow" route="left1" departSpeed="desired" depart="17" />
    <vehicle id="left2_155" type="Car" color="yellow" route="left2" departSpeed="desired" depart="17" />
    <vehicle id="right1_156" type="Car" color="yellow" route="right1" departSpeed="desired" depart="18" />
    <vehicle id="right2_157" type="Car" color="yellow" route="right2" departSpeed="desired" depart="18" />
    <vehicle id="right3_158" type="Car" color="yellow" route="right3" departSpeed="desired" depart="18" />
    <vehicle id="down1_159" type="Car" color="yellow" route="down1" departSpeed="desired" depart="18" />
    <vehicle id="down2_160" type="Car" color="yellow" route="down2" departSpeed="desired" depart="18" />
    <vehicle id="down3_161" type="Car" color="yellow" route="down3" departSpeed="desired" depart="18" />
    <vehicle id="up1_162" type="Car" color="yellow" route="up1" departSpeed="desired" depart="18" />
    <vehicle id="up2_163" type="Car" color="yellow" route="up2" departSpeed="desired" depart="18" />
    <vehicle id="left1_164" type="Car" color="yellow" route="left1" departSpeed="desired" depart="18" />
    <vehicle id="left2_165" type="Car" color="yellow" route="left2" departSpeed="desired" depart="18" />
    <vehicle id="right1_166" type="Car" color="yellow" route="right1" departSpeed="desired" depart="19" />
    <vehicle id="right2_167" type="Car" color="yellow" route="right2" departSpeed="desired" depart="19" />
    <vehicle id="right3_168" type="Car" color="yellow" route="right3" departSpeed="desired" depart="19" />
    <vehicle id="down1_169" type="Car" color="yellow" route="down1" departSpeed="desired" depart="19" />
    <vehicle id="down2_170" type="Car" color="yellow" route="down2" departSpeed="desired" depart="19" />
    <vehicle id="down3_171" type="Car" color="yellow" route="down3" departSpeed="desired" depart="19" />
    <vehicle id="up1_172" type="Car" color="yellow" route="up1" departSpeed="desired" depart="19" />
    <vehicle id="up2_173" type="Car" color="yellow" route="up2" departSpeed="desired" depart="19" />
    <vehicle id="left1_174" type="Car" color="yellow" route="left1" departSpeed="desired" depart="19" />
    <vehicle id="left2_175" type="Car" color="yellow" route="left2" departSpeed="desired" depart="19" />
    <vehicle id="right1_176" type="Car" color="yellow" route="right1" departSpeed="desired" depart="20" />
    <vehicle id="right2_177" type="Car" color="yellow" route="right2" departSpeed="desired" depart="20" />
    <vehicle id="right3_178" type="Car" color="yellow" route="right3" departSpeed="desired" depart="20" />
    <vehicle id="down1_179" type="Car" color="yellow" route="down1" departSpeed="desired" depart="20" />
    <vehicle id="down2_180" type="Car" color="yellow" route="down2" departSpeed="desired" depart="20" />
    <vehicle id="up1_181" type="Car" color="yellow" route="up1" departSpeed="desired" depart="20" />
    <vehicle id="up2_182" type="Car" color="yellow" route="up2" departSpeed="desired" depart="20" />
    <vehicle id="left1_183" type="Car" color="yellow" route="left1" departSpeed="desired" depart="20" />
    <vehicle id="left2_184" type="Car" color="yellow" route="left2" departSpeed="desired" depart="20" />
    <vehicle id="right1_185" type="Car" color="yellow" route="right1" departSpeed="desired" depart="21" />
    <vehicle id="right2_186" type="Car" color="yellow" route="right2" departSpeed="desired" depart="21" />
    <vehicle id="right3_187" type="Car" color="yellow" route="right3" departSpeed="desired" depart="21" />
    <vehicle id="down1_188" type="Car" color="yellow" route="down1" departSpeed="desired" depart="21" />
    <vehicle id="down2_189" type="Car" color="yellow" route="down2" departSpeed="desired" depart="21" />
    <vehicle id="down3_190" type="Car" color="yellow" route="down3" departSpeed="desired" depart="21" />
    <vehicle id="up1_191" type="Car" color="yellow" route="up1" departSpeed="desired" depart="21" />
    <vehicle id="up2_192" type="Car" color="yellow" route="up2" departSpeed="desired" depart="21" />
    <vehicle id="left1_193" type="Car" color="yellow" route="left1" departSpeed="desired" depart="21" />
    <vehicle id="left2_194" type="Car" color="yellow" route="left2" departSpeed="desired" depart="21" />
    <vehicle id="right1_195_emergency" type="Car" color="red" route="right1" departSpeed="desired" depart="22" />
    <vehicle id="right1_196" type="Car" color="yellow" route="right1" departSpeed="desired" depart="22" />
    <vehicle id="right2_197" type="Car" color="yellow" route="right2" departSpeed="desired" depart="22" />
    <vehicle id="right3_198" type="Car" color="yellow" route="right3" departSpeed="desired" depart="22" />
    <vehicle id="down1_199" type="Car" color="yellow" route="down1" departSpeed="desired" depart="22" />
    <vehicle id="down2_200" type="Car" color="yellow" route="down2" departSpeed="desired" depart="22" />
    <vehicle id="up1_201" type="Car" color="yellow" route="up1" departSpeed="desired" depart="22" />
    <vehicle id="up2_202" type="Car" color="yellow" route="up2" departSpeed="desired" depart="22" />
    <vehicle id="left1_203" type="Car" color="yellow" route="left1" departSpeed="desired" depart="22" />
    <vehicle id="left2_204" type="Car" color="yellow" route="left2" departSpeed="desired" depart="22" />
    <vehicle id="right1_205" type="Car" color="yellow" route="right1" departSpeed="desired" depart="23" />
    <vehicle id="right2_206" type="Car" color="yellow" route="right2" departSpeed="desired" depart="23" />
    <vehicle id="right3_207" type="Car" color="yellow" route="right3" departSpeed="desired" depart="23" />
    <vehicle id="down1_208" type="Car" color="yellow" route="down1" departSpeed="desired" depart="23" />
    <vehicle id="down2_209" type="Car" color="yellow" route="down2" departSpeed="desired" depart="23" />
    <vehicle id="down3_210" type="Car" color="yellow" route="down3" departSpeed="desired" depart="23" />
    <vehicle id="up1_211" type="Car" color="yellow" route="up1" departSpeed="desired" depart="23" />
    <vehicle id="up2_212" type="Car" color="yellow" route="up2" departSpeed="desired" depart="23" />
    <vehicle id="left1_213" type="Car" color="yellow" route="left1" departSpeed="desired" depart="23" />
    <vehicle id="left2_214" type="Car" color="yellow" route="left2" departSpeed="desired" depart="23" />
    <vehicle id="right1_215" type="Car" color="yellow" route="right1" departSpeed="desired" depart="24" />
    <vehicle id="right2_216" type="Car" color="yellow" route="right2" departSpeed="desired" depart="24" />
    <vehicle id="down1_217" type="Car" color="yellow" route="down1" departSpeed="desired" depart="24" />
    <vehicle id="down2_218" type="Car" color="yellow" route="down2" departSpeed="desired" depart="24" />
    <vehicle id="down3_219" type="Car" color="yellow" route="down3" departSpeed="desired" depart="24" />
    <vehicle id="up1_220" type="Car" color="yellow" route="up1" departSpeed="desired" depart="24" />
    <vehicle id="up2_221" type="Car" color="yellow" route="up2" departSpeed="desired" depart="24" />
    <vehicle id="left1_222" type="Car" color="yellow" route="left1" departSpeed="desired" depart="24" />
    <vehicle id="left2_223" type="Car" color="yellow" route="left2" departSpeed="desired" depart="24" />
    <vehicle id="right1_224" type="Car" color="yellow" route="right1" departSpeed="desired" depart="25" />
    <vehicle id="right2_225" type="Car" color="yellow" route="right2" departSpeed="desired" depart="25" />
    <vehicle id="down1_226" type="Car" color="yellow" route="down1" departSpeed="desired" depart="25" />
    <vehicle id="down2_227" type="Car" color="yellow" route="down2" departSpeed="desired" depart="25" />
    <vehicle id="down3_228" type="Car" color="yellow" route="down3" departSpeed="desired" depart="25" />
    <vehicle id="up1_229" type="Car" color="yellow" route="up1" departSpeed="desired" depart="25" />
    <vehicle id="up2_230" type="Car" color="yellow" route="up2" departSpeed="desired" depart="25" />
    <vehicle id="left1_231" type="Car" color="yellow" route="left1" departSpeed="desired" depart="25" />
    <vehicle id="left2_232" type="Car" color="yellow" route="left2" departSpeed="desired" depart="25" />
    <vehicle id="right1_233" type="Car" color="yellow" route="right1" departSpeed="desired" depart="26" />
    <vehicle id="right2_234" type="Car" color="yellow" route="right2" departSpeed="desired" depart="26" />
    <vehicle id="right3_235" type="Car" color="yellow" route="right3" departSpeed="desired" depart="26" />
    <vehicle id="down1_236" type="Car" color="yellow" route="down1" departSpeed="desired" depart="26" />
    <vehicle id="down2_237" type="Car" color="yellow" route="down2" departSpeed="desired" depart="26" />
    <vehicle id="down3_238" type="Car" color="yellow" route="down3" departSpeed="desired" depart="26" />
    <vehicle id="up1_239" type="Car" color="yellow" route="up1" departSpeed="desired" depart="26" />
    <vehicle id="up2_240" type="Car" color="yellow" route="up2" departSpeed="desired" depart="26" />
    <vehicle id="left1_241" type="Car" color="yellow" route="left1" departSpeed="desired" depart="26" />
    <vehicle id="left2_242" type="Car" color="yellow" route="left2" departSpeed="desired" depart="26" />
    <vehicle id="right1_243" type="Car" color="yellow" route="right1" departSpeed="desired" depart="27" />
    <vehicle id="right2_244" type="Car" color="yellow" route="right2" departSpeed="desired" depart="27" />
    <vehicle id="right3_245" type="Car" color="yellow" route="right3" departSpeed="desired" depart="27" />
    <vehicle id="down1_246" type="Car" color="yellow" route="down1" departSpeed="desired" depart="27" />
    <vehicle id="down3_247" type="Car" color="yellow" route="down3" departSpeed="desired" depart="27" />
    <vehicle id="up1_248" type="Car" color="yellow" route="up1" departSpeed="desired" depart="27" />
    <vehicle id="up2_249" type="Car" color="yellow" route="up2" departSpeed="desired" depart="27" />
    <vehicle id="left1_250" type="Car" color="yellow" route="left1" departSpeed="desired" depart="27" />
    <vehicle id="left2_251" type="Car" color="yellow" route="left2" departSpeed="desired" depart="27" />
    <vehicle id="right1_252" type="Car" color="yellow" route="right1" departSpeed="desired" depart="28" />
    <vehicle id="right2_253" type="Car" color="yellow" route="right2" departSpeed="desired" depart="28" />
    <vehicle id="right3_254" type="Car" color="yellow" route="right3" departSpeed="desired" depart="28" />
    <vehicle id="down1_255" type="Car" color="yellow" route="down1" departSpeed="desired" depart="28" />
    <vehicle id="down2_256" type="Car" color="yellow" route="down2" departSpeed="desired" depart="28" />
    <vehicle id="down3_257" type="Car" color="yellow" route="down3" departSpeed="desired" depart="28" />
    <vehicle id="up1_258" type="Car" color="yellow" route="up1" departSpeed="desired" depart="28" />
    <vehicle id="up2_259" type="Car" color="yellow" route="up2" departSpeed="desired" depart="28" />
    <vehicle id="left2_260" type="Car" color="yellow" route="left2" departSpeed="desired" depart="28" />
    <vehicle id="right1_261" type="Car" color="yellow" route="right1" departSpeed="desired" depart="29" />
    <vehicle id="right2_262" type="Car" color="yellow" route="right2" departSpeed="desired" depart="29" />
    <vehicle id="down1_263" type="Car" color="yellow" route="down1" departSpeed="desired" depart="29" />
    <vehicle id="down2_264" type="Car" color="yellow" route="down2" departSpeed="desired" depart="29" />
    <vehicle id="down3_265" type="Car" color="yellow" route="down3" departSpeed="desired" depart="29" />
    <vehicle id="up2_266" type="Car" color="yellow" route="up2" departSpeed="desired" depart="29" />
    <vehicle id="left1_267" type="Car" color="yellow" route="left1" departSpeed="desired" depart="29" />
    <vehicle id="left2_268" type="Car" color="yellow" route="left2" departSpeed="desired" depart="29" />
    <vehicle id="right1_269" type="Car" color="yellow" route="right1" departSpeed="desired" depart="30" />
    <vehicle id="right2_270" type="Car" color="yellow" route="right2" departSpeed="desired" depart="30" />
    <vehicle id="right3_271" type="Car" color="yellow" route="right3" departSpeed="desired" depart="30" />
    <vehicle id="down1_272" type="Car" color="yellow" route="down1" departSpeed="desired" depart="30" />
    <vehicle id="down2_273" type="Car" color="yellow" route="down2" departSpeed="desired" depart="30" />
    <vehicle id="down3_274" type="Car" color="yellow" route="down3" departSpeed="desired" depart="30" />
    <vehicle id="up1_275" type="Car" color="yellow" route="up1" departSpeed="desired" depart="30" />
    <vehicle id="up2_276" type="Car" color="yellow" route="up2" departSpeed="desired" depart="30" />
    <vehicle id="left1_277" type="Car" color="yellow" route="left1" departSpeed="desired" depart="30" />
    <vehicle id="left2_278" type="Car" color="yellow" route="left2" departSpeed="desired" depart="30" />