<routes>
      <vType id="Car" length="5.00" minGap="2.50" maxSpeed="16.67" guiShape="passenger" carFollowModel="IDM" accel="0.8" decel="4.5" tau="1.0"/>
            
    <route id="right1"  edges="1to2 2to3 outr1" />
    <route id="left1"  edges="8to7 7to6 outl1" />
    <route id="down1"  edges="9to2 2to6 outs1" />
    <route id="up1"  edges="12to7 7to3 outn1" />
    <vehicle id="up1_0" type="Car" color="yellow" route="up1" departSpeed="desired" depart="0" />
    <vehicle id="right1_1" type="Car" color="yellow" route="right1" departSpeed="desired" depart="2" />
    <vehicle id="down1_2" type="Car" color="yellow" route="down1" departSpeed="desired" depart="3" />
    <vehicle id="right1_3" type="Car" color="yellow" route="right1" departSpeed="desired" depart="8" />
    <vehicle id="left1_4" type="Car" color="yellow" route="left1" departSpeed="desired" depart="8" />
    <vehicle id="right1_5" type="Car" color="yellow" route="right1" departSpeed="desired" depart="9" />
    <vehicle id="left1_6" type="Car" color="yellow" route="left1" departSpeed="desired" depart="9" />
    <vehicle id="up1_7" type="Car" color="yellow" route="up1" departSpeed="desired" depart="12" />
    <vehicle id="left1_8" type="Car" color="yellow" route="left1" departSpeed="desired" depart="15" />
    <vehicle id="right1_9" type="Car" color="yellow" route="right1" departSpeed="desired" depart="16" />
    <vehicle id="down1_10" type="Car" color="yellow" route="down1" departSpeed="desired" depart="17" />
    <vehicle id="left1_11" type="Car" color="yellow" route="left1" departSpeed="desired" depart="21" />
    <vehicle id="down1_12" type="Car" color="yellow" route="down1" departSpeed="desired" depart="22" />
    <vehicle id="up1_13" type="Car" color="yellow" route="up1" departSpeed="desired" depart="22" />
    <vehicle id="down1_14" type="Car" color="yellow" route="down1" departSpeed="desired" depart="28" />
    <vehicle id="right1_15" type="Car" color="yellow" route="right1" departSpeed="desired" depart="30" />
    <vehicle id="left1_16" type="Car" color="yellow" route="left1" departSpeed="desired" depart="33" />
    <vehicle id="right1_17" type="Car" color="yellow" route="right1" departSpeed="desired" depart="34" />
    <vehicle id="left1_18" type="Car" color="yellow" route="left1" departSpeed="desired" depart="37" />
    <vehicle id="left1_19" type="Car" color="yellow" route="left1" departSpeed="desired" depart="38" />
    <vehicle id="up1_20" type="Car" color="yellow" route="up1" departSpeed="desired" depart="39" />
    <vehicle id="right1_21" type="Car" color="yellow" route="right1" departSpeed="desired" depart="46" />
    <vehicle id="right1_22" type="Car" color="yellow" route="right1" departSpeed="desired" depart="48" />
    <vehicle id="right1_23" type="Car" color="yellow" route="right1" departSpeed="desired" depart="54" />
    <vehicle id="left1_24" type="Car" color="yellow" route="left1" departSpeed="desired" depart="55" />
    <vehicle id="down1_25" type="Car" color="yellow" route="down1" departSpeed="desired" depart="57" />
    <vehicle id="right1_26_flaw" type="Car" color="blue" route="right1" departSpeed="desired" depart="62" />
    <vehicle id="down1_27" type="Car" color="yellow" route="down1" departSpeed="desired" depart="63" />
    <vehicle id="right1_28" type="Car" color="yellow" route="right1" departSpeed="desired" depart="66" />
    <vehicle id="right1_29" type="Car" color="yellow" route="right1" departSpeed="desired" depart="69" />
    <vehicle id="left1_30" type="Car" color="yellow" route="left1" departSpeed="desired" depart="69" />
    <vehicle id="down1_31" type="Car" color="yellow" route="down1" departSpeed="desired" depart="70" />
    <vehicle id="left1_32" type="Car" color="yellow" route="left1" departSpeed="desired" depart="71" />
    <vehicle id="left1_33" type="Car" color="yellow" route="left1" departSpeed="desired" depart="75" />
    <vehicle id="right1_34" type="Car" color="yellow" route="right1" departSpeed="desired" depart="76" />
    <vehicle id="right1_35" type="Car" color="yellow" route="right1" departSpeed="desired" depart="77" />
    <vehicle id="up1_36" type="Car" color="yellow" route="up1" departSpeed="desired" depart="78" />
    <vehicle id="right1_37" type="Car" color="yellow" route="right1" departSpeed="desired" depart="84" />
    <vehicle id="down1_38" type="Car" color="yellow" route="down1" departSpeed="desired" depart="84" />
    <vehicle id="up1_39" type="Car" color="yellow" route="up1" departSpeed="desired" depart="87" />
    <vehicle id="left1_40" type="Car" color="yellow" route="left1" departSpeed="desired" depart="91" />
    <vehicle id="left1_41" type="Car" color="yellow" route="left1" departSpeed="desired" depart="96" />
    <vehicle id="down1_42" type="Car" color="yellow" route="down1" departSpeed="desired" depart="100" />
    <vehicle id="left1_43" type="Car" color="yellow" route="left1" departSpeed="desired" depart="100" />
    <vehicle id="down1_44" type="Car" color="yellow" route="down1" departSpeed="desired" depart="103" />
    <vehicle id="left1_45" type="Car" color="yellow" route="left1" departSpeed="desired" depart="104" />
    <vehicle id="right1_46" type="Car" color="yellow" route="right1" departSpeed="desired" depart="108" />
    <vehicle id="left1_47" type="Car" color="yellow" route="left1" departSpeed="desired" depart="110" />
    <vehicle id="up1_48" type="Car" color="yellow" route="up1" departSpeed="desired" depart="112" />
    <vehicle id="down1_49" type="Car" color="yellow" route="down1" departSpeed="desired" depart="113" />
    <vehicle id="left1_50" type="Car" color="yellow" route="left1" departSpeed="desired" depart="113" />
    <vehicle id="left1_51" type="Car" color="yellow" route="left1" departSpeed="desired" depart="118" />
    <vehicle id="left1_52" type="Car" color="yellow" route="left1" departSpeed="desired" depart="119" />
    <vehicle id="up1_53" type="Car" color="yellow" route="up1" departSpeed="desired" depart="120" />
    <vehicle id="down1_54" type="Car" color="yellow" route="down1" departSpeed="desired" depart="129" />
    <vehicle id="up1_55" type="Car" color="yellow" route="up1" departSpeed="desired" depart="131" />
    <vehicle id="right1_56" type="Car" color="yellow" route="right1" departSpeed="desired" depart="132" />
    <vehicle id="down1_57" type="Car" color="yellow" route="down1" departSpeed="desired" depart="132" />
    <vehicle id="left1_58" type="Car" color="yellow" route="left1" departSpeed="desired" depart="132" />
    <vehicle id="right1_59" type="Car" color="yellow" route="right1" departSpeed="desired" depart="142" />
    <vehicle id="up1_60" type="Car" color="yellow" route="up1" departSpeed="desired" depart="143" />
    <vehicle id="left1_61" type="Car" color="yellow" route="left1" departSpeed="desired" depart="143" />
    <vehicle id="down1_62" type="Car" color="yellow" route="down1" departSpeed="desired" depart="144" />
    <vehicle id="left1_63" type="Car" color="yellow" route="left1" departSpeed="desired" depart="145" />
    <vehicle id="up1_64" type="Car" color="yellow" route="up1" departSpeed="desired" depart="146" />
    <vehicle id="left1_65" type="Car" color="yellow" route="left1" departSpeed="desired" depart="147" />
    <vehicle id="right1_66" type="Car" color="yellow" route="right1" departSpeed="desired" depart="150" />
    <vehicle id="left1_67" type="Car" color="yellow" route="left1" departSpeed="desired" depart="153" />
    <vehicle id="down1_68" type="Car" color="yellow" route="down1" departSpeed="desired" depart="154" />
    <vehicle id="up1_69" type="Car" color="yellow" route="up1" departSpeed="desired" depart="154" />
    <vehicle id="down1_70" type="Car" color="yellow" route="down1" departSpeed="desired" depart="155" />
    <vehicle id="right1_71" type="Car" color="yellow" route="right1" departSpeed="desired" depart="158" />
    <vehicle id="up1_72" type="Car" color="yellow" route="up1" departSpeed="desired" depart="158" />
    <vehicle id="right1_73" type="Car" color="yellow" route="right1" departSpeed="desired" depart="159" />
    <vehicle id="up1_74" type="Car" color="yellow" route="up1" departSpeed="desired" depart="161" />
    <vehicle id="right1_75" type="Car" color="yellow" route="right1" departSpeed="desired" depart="170" />
    <vehicle id="left1_76" type="Car" color="yellow" route="left1" departSpeed="desired" depart="173" />
    <vehicle id="left1_77" type="Car" color="yellow" route="left1" departSpeed="desired" depart="181" />
    <vehicle id="right1_78" type="Car" color="yellow" route="right1" departSpeed="desired" depart="182" />
    <vehicle id="left1_79" type="Car" color="yellow" route="left1" departSpeed="desired" depart="182" />
    <vehicle id="up1_80" type="Car" color="yellow" route="up1" departSpeed="desired" depart="187" />
    <vehicle id="right1_81" type="Car" color="yellow" route="right1" departSpeed="desired" depart="188" />
    <vehicle id="left1_82" type="Car" color="yellow" route="left1" departSpeed="desired" depart="189" />
    <vehicle id="up1_83" type="Car" color="yellow" route="up1" departSpeed="desired" depart="192" />
    <vehicle id="left1_84" type="Car" color="yellow" route="left1" departSpeed="desired" depart="192" />
    <vehicle id="down1_85" type="Car" color="yellow" route="down1" departSpeed="desired" depart="195" />
    <vehicle id="right1_86" type="Car" color="yellow" route="right1" departSpeed="desired" depart="197" />
    <vehicle id="up1_87" type="Car" color="yellow" route="up1" departSpeed="desired" depart="198" />
    <vehicle id="down1_88" type="Car" color="yellow" route="down1" departSpeed="desired" depart="200" />
    <vehicle id="down1_89" type="Car" color="yellow" route="down1" departSpeed="desired" depart="202" />
    <vehicle id="right1_90" type="Car" color="yellow" route="right1" departSpeed="desired" depart="204" />
    <vehicle id="up1_91" type="Car" color="yellow" route="up1" departSpeed="desired" depart="206" />
    <vehicle id="right1_92" type="Car" color="yellow" route="right1" departSpeed="desired" depart="212" />
    <vehicle id="right1_93" type="Car" color="yellow" route="right1" departSpeed="desired" depart="214" />
    <vehicle id="right1_94" type="Car" color="yellow" route="right1" departSpeed="desired" depart="215" />
    <vehicle id="left1_95" type="Car" color="yellow" route="left1" departSpeed="desired" depart="215" />
    <vehicle id="up1_96" type="Car" color="yellow" route="up1" departSpeed="desired" depart="225" />
    <vehicle id="left1_97" type="Car" color="yellow" route="left1" departSpeed="desired" depart="225" />
    <vehicle id="right1_98" type="Car" color="yellow" route="right1" departSpeed="desired" depart="226" />
    <vehicle id="right1_99" type="Car" color="yellow" route="right1" departSpeed="desired" depart="227" />
    <vehicle id="down1_100" type="Car" color="yellow" route="down1" departSpeed="desired" depart="228" />
    <vehicle id="left1_101" type="Car" color="yellow" route="left1" departSpeed="desired" depart="231" />
    <vehicle id="right1_102" type="Car" color="yellow" route="right1" departSpeed="desired" depart="236" />
    <vehicle id="left1_103" type="Car" color="yellow" route="left1" departSpeed="desired" depart="237" />
    <vehicle id="down1_104" type="Car" color="yellow" route="down1" departSpeed="desired" depart="247" />
    <vehicle id="down1_105" type="Car" color="yellow" route="down1" departSpeed="desired" depart="251" />
    <vehicle id="right1_106" type="Car" color="yellow" route="right1" departSpeed="desired" depart="256" />
    <vehicle id="up1_107" type="Car" color="yellow" route="up1" departSpeed="desired" depart="256" />
    <vehicle id="right1_108" type="Car" color="yellow" route="right1" departSpeed="desired" depart="257" />
    <vehicle id="down1_109" type="Car" color="yellow" route="down1" departSpeed="desired" depart="259" />
    <vehicle id="right1_110" type="Car" color="yellow" route="right1" departSpeed="desired" depart="262" />
    <vehicle id="left1_111" type="Car" color="yellow" route="left1" departSpeed="desired" depart="264" />
    <vehicle id="right1_112" type="Car" color="yellow" route="right1" departSpeed="desired" depart="266" />
    <vehicle id="down1_113" type="Car" color="yellow" route="down1" departSpeed="desired" depart="266" />
    <vehicle id="up1_114" type="Car" color="yellow" route="up1" departSpeed="desired" depart="269" />
    <vehicle id="down1_115" type="Car" color="yellow" route="down1" departSpeed="desired" depart="271" />
    <vehicle id="left1_116" type="Car" color="yellow" route="left1" departSpeed="desired" depart="272" />
    <vehicle id="up1_117" type="Car" color="yellow" route="up1" departSpeed="desired" depart="273" />
    <vehicle id="left1_118" type="Car" color="yellow" route="left1" departSpeed="desired" depart="274" />
    <vehicle id="up1_119" type="Car" color="yellow" route="up1" departSpeed="desired" depart="280" />
    <vehicle id="up1_120" type="Car" color="yellow" route="up1" departSpeed="desired" depart="287" />
    <vehicle id="left1_121" type="Car" color="yellow" route="left1" departSpeed="desired" depart="288" />
    <vehicle id="up1_122" type="Car" color="yellow" route="up1" departSpeed="desired" depart="289" />
    <vehicle id="down1_123" type="Car" color="yellow" route="down1" departSpeed="desired" depart="290" />
    <vehicle id="left1_124" type="Car" color="yellow" route="left1" departSpeed="desired" depart="291" />
    <vehicle id="left1_125" type="Car" color="yellow" route="left1" departSpeed="desired" depart="292" />
    <vehicle id="right1_126" type="Car" color="yellow" route="right1" departSpeed="desired" depart="297" />
    <vehicle id="left1_127" type="Car" color="yellow" route="left1" departSpeed="desired" depart="298" />
    <vehicle id="right1_128" type="Car" color="yellow" route="right1" departSpeed="desired" depart="302" />
    <vehicle id="left1_129" type="Car" color="yellow" route="left1" departSpeed="desired" depart="302" />
    <vehicle id="up1_130" type="Car" color="yellow" route="up1" departSpeed="desired" depart="306" />
    <vehicle id="right1_131" type="Car" color="yellow" route="right1" departSpeed="desired" depart="311" />
    <vehicle id="right1_132" type="Car" color="yellow" route="right1" departSpeed="desired" depart="312" />
    <vehicle id="down1_133" type="Car" color="yellow" route="down1" departSpeed="desired" depart="314" />
    <vehicle id="up1_134" type="Car" color="yellow" route="up1" departSpeed="desired" depart="317" />
    <vehicle id="right1_135" type="Car" color="yellow" route="right1" departSpeed="desired" depart="321" />
    <vehicle id="left1_136" type="Car" color="yellow" route="left1" departSpeed="desired" depart="321" />
    <vehicle id="left1_137" type="Car" color="yellow" route="left1" departSpeed="desired" depart="323" />
    <vehicle id="up1_138" type="Car" color="yellow" route="up1" departSpeed="desired" depart="328" />
    <vehicle id="left1_139" type="Car" color="yellow" route="left1" departSpeed="desired" depart="328" />
    <vehicle id="right1_140" type="Car" color="yellow" route="right1" departSpeed="desired" depart="331" />
    <vehicle id="down1_141" type="Car" color="yellow" route="down1" departSpeed="desired" depart="331" />
    <vehicle id="right1_142" type="Car" color="yellow" route="right1" departSpeed="desired" depart="334" />
    <vehicle id="down1_143" type="Car" color="yellow" route="down1" departSpeed="desired" depart="338" />
    <vehicle id="up1_144" type="Car" color="yellow" route="up1" departSpeed="desired" depart="338" />
    <vehicle id="left1_145" type="Car" color="yellow" route="left1" departSpeed="desired" depart="339" />
    <vehicle id="up1_146" type="Car" color="yellow" route="up1" departSpeed="desired" depart="344" />
    <vehicle id="up1_147" type="Car" color="yellow" route="up1" departSpeed="desired" depart="345" />
    <vehicle id="up1_148_flaw" type="Car" color="blue" route="up1" departSpeed="desired" depart="346" />
    <vehicle id="right1_149" type="Car" color="yellow" route="right1" departSpeed="desired" depart="348" />
    <vehicle id="down1_150" type="Car" color="yellow" route="down1" departSpeed="desired" depart="351" />
    <vehicle id="right1_151" type="Car" color="yellow" route="right1" departSpeed="desired" depart="357" />
    <vehicle id="up1_152" type="Car" color="yellow" route="up1" departSpeed="desired" depart="358" />
    <vehicle id="down1_153" type="Car" color="yellow" route="down1" departSpeed="desired" depart="365" />
    <vehicle id="right1_154" type="Car" color="yellow" route="right1" departSpeed="desired" depart="367" />
    <vehicle id="down1_155" type="Car" color="yellow" route="down1" departSpeed="desired" depart="368" />
    <vehicle id="left1_156" type="Car" color="yellow" route="left1" departSpeed="desired" depart="369" />
    <vehicle id="right1_157" type="Car" color="yellow" route="right1" departSpeed="desired" depart="370" />
    <vehicle id="left1_158" type="Car" color="yellow" route="left1" departSpeed="desired" depart="370" />
    <vehicle id="down1_159" type="Car" color="yellow" route="down1" departSpeed="desired" depart="372" />
    <vehicle id="down1_160" type="Car" color="yellow" route="down1" departSpeed="desired" depart="374" />
    <vehicle id="up1_161" type="Car" color="yellow" route="up1" departSpeed="desired" depart="379" />
    <vehicle id="up1_162" type="Car" color="yellow" route="up1" departSpeed="desired" depart="380" />
    <vehicle id="left1_163" type="Car" color="yellow" route="left1" departSpeed="desired" depart="384" />
    <vehicle id="right1_164" type="Car" color="yellow" route="right1" departSpeed="desired" depart="390" />
    <vehicle id="left1_165" type="Car" color="yellow" route="left1" departSpeed="desired" depart="390" />
    <vehicle id="down1_166" type="Car" color="yellow" route="down1" departSpeed="desired" depart="394" />
    <vehicle id="down1_167" type="Car" color="yellow" route="down1" departSpeed="desired" depart="396" />
    <vehicle id="right1_168" type="Car" color="yellow" route="right1" departSpeed="desired" depart="401" />
    <vehicle id="down1_169" type="Car" color="yellow" route="down1" departSpeed="desired" depart="404" />
    <vehicle id="left1_170" type="Car" color="yellow" route="left1" departSpeed="desired" depart="407" />
    <vehicle id="right1_171" type="Car" color="yellow" route="right1" departSpeed="desired" depart="412" />
    <vehicle id="down1_172" type="Car" color="yellow" route="down1" departSpeed="desired" depart="413" />
    <vehicle id="up1_173" type="Car" color="yellow" route="up1" departSpeed="desired" depart="415" />
    <vehicle id="right1_174" type="Car" color="yellow" route="right1" departSpeed="desired" depart="423" />
    <vehicle id="down1_175" type="Car" color="yellow" route="down1" departSpeed="desired" depart="424" />
    <vehicle id="up1_176" type="Car" color="yellow" route="up1" departSpeed="desired" depart="424" />
    <vehicle id="up1_177" type="Car" color="yellow" route="up1" departSpeed="desired" depart="426" />
    <vehicle id="down1_178" type="Car" color="yellow" route="down1" departSpeed="desired" depart="434" />
    <vehicle id="right1_179" type="Car" color="yellow" route="right1" departSpeed="desired" depart="436" />
    <vehicle id="down1_180" type="Car" color="yellow" route="down1" departSpeed="desired" depart="439" />
    <vehicle id="down1_181" type="Car" color="yellow" route="down1" departSpeed="desired" depart="444" />
    <vehicle id="down1_182" type="Car" color="yellow" route="down1" departSpeed="desired" depart="450" />
    <vehicle id="up1_183" type="Car" color="yellow" route="up1" departSpeed="desired" depart="450" />
    <vehicle id="left1_184" type="Car" color="yellow" route="left1" departSpeed="desired" depart="452" />
    <vehicle id="left1_185_flaw" type="Car" color="blue" route="left1" departSpeed="desired" depart="454" />
    <vehicle id="right1_186" type="Car" color="yellow" route="right1" departSpeed="desired" depart="458" />
    <vehicle id="up1_187" type="Car" color="yellow" route="up1" departSpeed="desired" depart="466" />
    <vehicle id="down1_188" type="Car" color="yellow" route="down1" departSpeed="desired" depart="471" />
    <vehicle id="down1_189" type="Car" color="yellow" route="down1" departSpeed="desired" depart="472" />
    <vehicle id="left1_190" type="Car" color="yellow" route="left1" departSpeed="desired" depart="472" />
    <vehicle id="right1_191" type="Car" color="yellow" route="right1" departSpeed="desired" depart="474" />
    <vehicle id="left1_192" type="Car" color="yellow" route="left1" departSpeed="desired" depart="478" />
    <vehicle id="up1_193" type="Car" color="yellow" route="up1" departSpeed="desired" depart="481" />
    <vehicle id="left1_194" type="Car" color="yellow" route="left1" departSpeed="desired" depart="482" />
    <vehicle id="right1_195" type="Car" color="yellow" route="right1" departSpeed="desired" depart="484" />
    <vehicle id="right1_196" type="Car" color="yellow" route="right1" departSpeed="desired" depart="486" />
    <vehicle id="up1_197" type="Car" color="yellow" route="up1" departSpeed="desired" depart="487" />
    <vehicle id="down1_198" type="Car" color="yellow" route="down1" departSpeed="desired" depart="489" />
    <vehicle id="up1_199" type="Car" color="yellow" route="up1" departSpeed="desired" depart="489" />
    <vehicle id="left1_200" type="Car" color="yellow" route="left1" departSpeed="desired" depart="491" />
    <vehicle id="left1_201" type="Car" color="yellow" route="left1" departSpeed="desired" depart="492" />
    <vehicle id="up1_202" type="Car" color="yellow" route="up1" departSpeed="desired" depart="494" />
    <vehicle id="right1_203" type="Car" color="yellow" route="right1" departSpeed="desired" depart="497" />
    <vehicle id="left1_204" type="Car" color="yellow" route="left1" departSpeed="desired" depart="506" />
    <vehicle id="down1_205" type="Car" color="yellow" route="down1" departSpeed="desired" depart="512" />
    <vehicle id="right1_206" type="Car" color="yellow" route="right1" departSpeed="desired" depart="515" />
    <vehicle id="up1_207" type="Car" color="yellow" route="up1" departSpeed="desired" depart="515" />
    <vehicle id="left1_208" type="Car" color="yellow" route="left1" departSpeed="desired" depart="516" />
    <vehicle id="up1_209" type="Car" color="yellow" route="up1" departSpeed="desired" depart="517" />
    <vehicle id="left1_210" type="Car" color="yellow" route="left1" departSpeed="desired" depart="517" />
    <vehicle id="right1_211" type="Car" color="yellow" route="right1" departSpeed="desired" depart="524" />
    <vehicle id="left1_212" type="Car" color="yellow" route="left1" departSpeed="desired" depart="528" />
    <vehicle id="down1_213" type="Car" color="yellow" route="down1" departSpeed="desired" depart="531" />
    <vehicle id="left1_214" type="Car" color="yellow" route="left1" departSpeed="desired" depart="531" />
    <vehicle id="up1_215" type="Car" color="yellow" route="up1" departSpeed="desired" depart="534" />
    <vehicle id="right1_216" type="Car" color="yellow" route="right1" departSpeed="desired" depart="537" />
    <vehicle id="right1_217" type="Car" color="yellow" route="right1" departSpeed="desired" depart="539" />
    <vehicle id="left1_218" type="Car" color="yellow" route="left1" departSpeed="desired" depart="539" />
    <vehicle id="down1_219" type="Car" color="yellow" route="down1" departSpeed="desired" depart="542" />
    <vehicle id="left1_220" type="Car" color="yellow" route="left1" departSpeed="desired" depart="546" />
    <vehicle id="right1_221" type="Car" color="yellow" route="right1" departSpeed="desired" depart="548" />
    <vehicle id="right1_222_flaw" type="Car" color="blue" route="right1" departSpeed="desired" depart="549" />
    <vehicle id="right1_223" type="Car" color="yellow" route="right1" departSpeed="desired" depart="551" />
    <vehicle id="up1_224" type="Car" color="yellow" route="up1" departSpeed="desired" depart="551" />
    <vehicle id="up1_225" type="Car" color="yellow" route="up1" departSpeed="desired" depart="552" />
    <vehicle id="left1_226" type="Car" color="yellow" route="left1" departSpeed="desired" depart="552" />
    <vehicle id="down1_227" type="Car" color="yellow" route="down1" departSpeed="desired" depart="555" />
    <vehicle id="down1_228" type="Car" color="yellow" route="down1" departSpeed="desired" depart="556" />
    <vehicle id="up1_229" type="Car" color="yellow" route="up1" departSpeed="desired" depart="556" />
    <vehicle id="down1_230" type="Car" color="yellow" route="down1" departSpeed="desired" depart="557" />
    <vehicle id="left1_231" type="Car" color="yellow" route="left1" departSpeed="desired" depart="559" />
    <vehicle id="right1_232" type="Car" color="yellow" route="right1" departSpeed="desired" depart="561" />
    <vehicle id="left1_233" type="Car" color="yellow" route="left1" departSpeed="desired" depart="565" />
    <vehicle id="left1_234" type="Car" color="yellow" route="left1" departSpeed="desired" depart="567" />
    <vehicle id="left1_235" type="Car" color="yellow" route="left1" departSpeed="desired" depart="574" />
    <vehicle id="up1_236" type="Car" color="yellow" route="up1" departSpeed="desired" depart="575" />
    <vehicle id="down1_237" type="Car" color="yellow" route="down1" departSpeed="desired" depart="577" />
    <vehicle id="up1_238" type="Car" color="yellow" route="up1" departSpeed="desired" depart="581" />
    <vehicle id="down1_239" type="Car" color="yellow" route="down1" departSpeed="desired" depart="584" />
    <vehicle id="up1_240" type="Car" color="yellow" route="up1" departSpeed="desired" depart="589" />
    <vehicle id="left1_241" type="Car" color="yellow" route="left1" departSpeed="desired" depart="590" />
    <vehicle id="left1_242" type="Car" color="yellow" route="left1" departSpeed="desired" depart="593" />
    <vehicle id="down1_243" type="Car" color="yellow" route="down1" departSpeed="desired" depart="594" />
    <vehicle id="up1_244" type="Car" color="yellow" route="up1" departSpeed="desired" depart="594" />
    <vehicle id="down1_245" type="Car" color="yellow" route="down1" departSpeed="desired" depart="595" />
    <vehicle id="right1_246" type="Car" color="yellow" route="right1" departSpeed="desired" depart="596" />
    <vehicle id="right1_247" type="Car" color="yellow" route="right1" departSpeed="desired" depart="599" />
    <vehicle id="up1_248" type="Car" color="yellow" route="up1" departSpeed="desired" depart="602" />
    <vehicle id="up1_249" type="Car" color="yellow" route="up1" departSpeed="desired" depart="604" />
    <vehicle id="up1_250" type="Car" color="yellow" route="up1" departSpeed="desired" depart="605" />
    <vehicle id="down1_251" type="Car" color="yellow" route="down1" departSpeed="desired" depart="606" />
    <vehicle id="down1_252_flaw" type="Car" color="blue" route="down1" departSpeed="desired" depart="607" />
    <vehicle id="down1_253" type="Car" color="yellow" route="down1" departSpeed="desired" depart="613" />
    <vehicle id="down1_254" type="Car" color="yellow" route="down1" departSpeed="desired" depart="618" />
    <vehicle id="right1_255" type="Car" color="yellow" route="right1" departSpeed="desired" depart="622" />
    <vehicle id="left1_256" type="Car" color="yellow" route="left1" departSpeed="desired" depart="622" />
    <vehicle id="left1_257" type="Car" color="yellow" route="left1" departSpeed="desired" depart="623" />
    <vehicle id="left1_258" type="Car" color="yellow" route="left1" departSpeed="desired" depart="624" />
    <vehicle id="left1_259" type="Car" color="yellow" route="left1" departSpeed="desired" depart="626" />
    <vehicle id="right1_260" type="Car" color="yellow" route="right1" departSpeed="desired" depart="628" />
    <vehicle id="up1_261" type="Car" color="yellow" route="up1" departSpeed="desired" depart="631" />
    <vehicle id="up1_262" type="Car" color="yellow" route="up1" departSpeed="desired" depart="633" />
    <vehicle id="right1_263" type="Car" color="yellow" route="right1" departSpeed="desired" depart="634" />
    <vehicle id="down1_264" type="Car" color="yellow" route="down1" departSpeed="desired" depart="634" />
    <vehicle id="right1_265" type="Car" color="yellow" route="right1" departSpeed="desired" depart="635" />
    <vehicle id="left1_266" type="Car" color="yellow" route="left1" departSpeed="desired" depart="636" />
    <vehicle id="right1_267" type="Car" color="yellow" route="right1" departSpeed="desired" depart="639" />
    <vehicle id="left1_268" type="Car" color="yellow" route="left1" departSpeed="desired" depart="640" />
    <vehicle id="right1_269" type="Car" color="yellow" route="right1" departSpeed="desired" depart="648" />
    <vehicle id="right1_270" type="Car" color="yellow" route="right1" departSpeed="desired" depart="653" />
    <vehicle id="left1_271" type="Car" color="yellow" route="left1" departSpeed="desired" depart="653" />
    <vehicle id="up1_272" type="Car" color="yellow" route="up1" departSpeed="desired" depart="658" />
    <vehicle id="up1_273" type="Car" color="yellow" route="up1" departSpeed="desired" depart="659" />
    <vehicle id="right1_274" type="Car" color="yellow" route="right1" departSpeed="desired" depart="661" />
    <vehicle id="down1_275" type="Car" color="yellow" route="down1" departSpeed="desired" depart="667" />
    <vehicle id="left1_276_flaw" type="Car" color="blue" route="left1" departSpeed="desired" depart="671" />
    <vehicle id="down1_277" type="Car" color="yellow" route="down1" departSpeed="desired" depart="672" />
    <vehicle id="down1_278" type="Car" color="yellow" route="down1" departSpeed="desired" depart="673" />
    <vehicle id="up1_279" type="Car" color="yellow" route="up1" departSpeed="desired" depart="673" />
    <vehicle id="right1_280" type="Car" color="yellow" route="right1" departSpeed="desired" depart="678" />