<routes>
      <vType id="Car" length="5.00" minGap="2.50" maxSpeed="16.67" guiShape="passenger" carFollowModel="IDM" accel="0.8" decel="4.5" tau="1.0"/>
            
    <route id="right1"  edges="1to2 2to3 3to4 4to5 5to6 outr1" />
    <route id="right2"  edges="15to16 16to17 17to18 18to19 19to20 outr2" />
    <route id="right3"  edges="29to30 30to31 31to32 32to33 33to34 outr3" />
    <route id="left1"  edges="14to13 13to12 12to11 11to10 10to9 outl1" />
    <route id="left2"  edges="28to27 27to26 26to25 25to24 24to23 outl2" />
    <route id="down1"  edges="36to2 2to9 9to16 16to23 23to30 outs1" />
    <route id="down2"  edges="40to4 4to11 11to18 18to25 25to32 outs2" />
    <route id="down3"  edges="44to6 6to13 13to20 20to27 27to34 outs3" />
    <route id="up1"  edges="39to31 31to24 24to17 17to10 10to3 outn1" />
    <route id="up2"  edges="43to33 33to26 26to19 19to12 12to5 outn2" />
    <vehicle id="right1_0" type="Car" color="yellow" route="right1" departSpeed="desired" depart="0" />
    <vehicle id="right2_1" type="Car" color="yellow" route="right2" departSpeed="desired" depart="0" />
    <vehicle id="right3_2" type="Car" color="yellow" route="right3" departSpeed="desired" depart="0" />
    <vehicle id="down1_3" type="Car" color="yellow" route="down1" departSpeed="desired" depart="0" />
    <vehicle id="down2_4" type="Car" color="yellow" route="down2" departSpeed="desired" depart="0" />
    <vehicle id="down3_5" type="Car" color="yellow" route="down3" departSpeed="desired" depart="0" />
    <vehicle id="up1_6" type="Car" color="yellow" route="up1" departSpeed="desired" depart="0" />
    <vehicle id="up2_7" type="Car" color="yellow" route="up2" departSpeed="desired" depart="0" />
    <vehicle id="left1_8" type="Car" color="yellow" route="left1" departSpeed="desired" depart="0" />
    <vehicle id="left2_9" type="Car" color="yellow" route="left2" departSpeed="desired" depart="0" />
    <vehicle id="right1_10" type="Car" color="yellow" route="right1" departSpeed="desired" depart="1" />
    <vehicle id="right2_11" type="Car" color="yellow" route="right2" departSpeed="desired" depart="1" />
    <vehicle id="right3_12" type="Car" color="yellow" route="right3" departSpeed="desired" depart="1" />
    <vehicle id="down1_13" type="Car" color="yellow" route="down1" departSpeed="desired" depart="1" />
    <vehicle id="down2_14" type="Car" color="yellow" route="down2" departSpeed="desired" depart="1" />
    <vehicle id="down3_15" type="Car" color="yellow" route="down3" departSpeed="desired" depart="1" />
    <vehicle id="up1_16" type="Car" color="yellow" route="up1" departSpeed="desired" depart="1" />
    <vehicle id="up2_17" type="Car" color="yellow" route="up2" departSpeed="desired" depart="1" />
    <vehicle id="left1_18" type="Car" color="yellow" route="left1" departSpeed="desired" depart="1" />
    <vehicle id="left2_19" type="Car" color="yellow" route="left2" departSpeed="desired" depart="1" />
    <vehicle id="right1_20" type="Car" color="yellow" route="right1" departSpeed="desired" depart="2" />
    <vehicle id="right2_21" type="Car" color="yellow" route="right2" departSpeed="desired" depart="2" />
    <vehicle id="right3_22" type="Car" color="yellow" route="right3" departSpeed="desired" depart="2" />
    <vehicle id="down1_23" type="Car" color="yellow" route="down1" departSpeed="desired" depart="2" />
    <vehicle id="down2_24" type="Car" color="yellow" route="down2" departSpeed="desired" depart="2" />
    <vehicle id="down3_25" type="Car" color="yellow" route="down3" departSpeed="desired" depart="2" />
    <vehicle id="up1_26" type="Car" color="yellow" route="up1" departSpeed="desired" depart="2" />
    <vehicle id="up2_27" type="Car" color="yellow" route="up2" departSpeed="desired" depart="2" />
    <vehicle id="left1_28" type="Car" color="yellow" route="left1" departSpeed="desired" depart="2" />
    <vehicle id="left2_29" type="Car" color="yellow" route="left2" departSpeed="desired" depart="2" />
    <vehicle id="right1_30" type="Car" color="yellow" route="right1" departSpeed="desired" depart="3" />
    <vehicle id="right2_31" type="Car" color="yellow" route="right2" departSpeed="desired" depart="3" />
    <vehicle id="right3_32" type="Car" color="yellow" route="right3" departSpeed="desired" depart="3" />
    <vehicle id="down1_33" type="Car" color="yellow" route="down1" departSpeed="desired" depart="3" />
    <vehicle id="down2_34" type="Car" color="yellow" route="down2" departSpeed="desired" depart="3" />
    <vehicle id="down3_35" type="Car" color="yellow" route="down3" departSpeed="desired" depart="3" />
    <vehicle id="up1_36" type="Car" color="yellow" route="up1" departSpeed="desired" depart="3" />
    <vehicle id="up2_37" type="Car" color="yellow" route="up2" departSpeed="desired" depart="3" />
    <vehicle id="left1_38" type="Car" color="yellow" route="left1" departSpeed="desired" depart="3" />
    <vehicle id="left2_39" type="Car" color="yellow" route="left2" departSpeed="desired" depart="3" />
    <vehicle id="right1_40" type="Car" color="yellow" route="right1" departSpeed="desired" depart="4" />
    <vehicle id="right2_41" type="Car" color="yellow" route="right2" departSpeed="desired" depart="4" />
    <vehicle id="right3_42" type="Car" color="yellow" route="right3" departSpeed="desired" depart="4" />
    <vehicle id="down1_43" type="Car" color="yellow" route="down1" departSpeed="desired" depart="4" />
    <vehicle id="down2_44" type="Car" color="yellow" route="down2" departSpeed="desired" depart="4" />
    <vehicle id="down3_45" type="Car" color="yellow" route="down3" departSpeed="desired" depart="4" />
    <vehicle id="up1_46" type="Car" color="yellow" route="up1" departSpeed="desired" depart="4" />
    <vehicle id="up2_47" type="Car" color="yellow" route="up2" departSpeed="desired" depart="4" />
    <vehicle id="left1_48" type="Car" color="yellow" route="left1" departSpeed="desired" depart="4" />
    <vehicle id="left2_49" type="Car" color="yellow" route="left2" departSpeed="desired" depart="4" />
    <vehicle id="right1_50" type="Car" color="yellow" route="right1" departSpeed="desired" depart="5" />
    <vehicle id="right2_51" type="Car" color="yellow" route="right2" departSpeed="desired" depart="5" />
    <vehicle id="right3_52" type="Car" color="yellow" route="right3" departSpeed="desired" depart="5" />
    <vehicle id="down1_53" type="Car" color="yellow" route="down1" departSpeed="desired" depart="5" />
    <vehicle id="down2_54" type="Car" color="yellow" route="down2" departSpeed="desired" depart="5" />
    <vehicle id="down3_55" type="Car" color="yellow" route="down3" departSpeed="desired" depart="5" />
    <vehicle id="up1_56" type="Car" color="yellow" route="up1" departSpeed="desired" depart="5" />
    <vehicle id="up2_57" type="Car" color="yellow" route="up2" departSpeed="desired" depart="5" />
    <vehicle id="left1_58" type="Car" color="yellow" route="left1" departSpeed="desired" depart="5" />
    <vehicle id="left2_59" type="Car" color="yellow" route="left2" departSpeed="desired" depart="5" />
    <vehicle id="right1_60" type="Car" color="yellow" route="right1" departSpeed="desired" depart="6" />
    <vehicle id="right2_61" type="Car" color="yellow" route="right2" departSpeed="desired" depart="6" />
    <vehicle id="right3_62" type="Car" color="yellow" route="right3" departSpeed="desired" depart="6" />
    <vehicle id="down1_63" type="Car" color="yellow" route="down1" departSpeed="desired" depart="6" />
    <vehicle id="down2_64" type="Car" color="yellow" route="down2" departSpeed="desired" depart="6" />
    <vehicle id="down3_65" type="Car" color="yellow" route="down3" departSpeed="desired" depart="6" />
    <vehicle id="up1_66" type="Car" color="yellow" route="up1" departSpeed="desired" depart="6" />
    <vehicle id="up2_67" type="Car" color="yellow" route="up2" departSpeed="desired" depart="6" />
    <vehicle id="left1_68" type="Car" color="yellow" route="left1" departSpeed="desired" depart="6" />
    <vehicle id="left2_69" type="Car" color="yellow" route="left2" departSpeed="desired" depart="6" />
    <vehicle id="right1_70" type="Car" color="yellow" route="right1" departSpeed="desired" depart="7" />
    <vehicle id="right2_71" type="Car" color="yellow" route="right2" departSpeed="desired" depart="7" />
    <vehicle id="right3_72" type="Car" color="yellow" route="right3" departSpeed="desired" depart="7" />
    <vehicle id="down1_73" type="Car" color="yellow" route="down1" departSpeed="desired" depart="7" />
    <vehicle id="down2_74" type="Car" color="yellow" route="down2" departSpeed="desired" depart="7" />
    <vehicle id="down3_75" type="Car" color="yellow" route="down3" departSpeed="desired" depart="7" />
    <vehicle id="up1_76" type="Car" color="yellow" route="up1" departSpeed="desired" depart="7" />
    <vehicle id="up2_77" type="Car" color="yellow" route="up2" departSpeed="desired" depart="7" />
    <vehicle id="left1_78" type="Car" color="yellow" route="left1" departSpeed="desired" depart="7" />
    <vehicle id="left2_79" type="Car" color="yellow" route="left2" departSpeed="desired" depart="7" />
    <vehicle id="right1_80" type="Car" color="yellow" route="right1" departSpeed="desired" depart="8" />
    <vehicle id="right2_81" type="Car" color="yellow" route="right2" departSpeed="desired" depart="8" />
    <vehicle id="right3_82" type="Car" color="yellow" route="right3" departSpeed="desired" depart="8" />
    <vehicle id="down1_83" type="Car" color="yellow" route="down1" departSpeed="desired" depart="8" />
    <vehicle id="down2_84" type="Car" color="yellow" route="down2" departSpeed="desired" depart="8" />
    <vehicle id="down3_85" type="Car" color="yellow" route="down3" departSpeed="desired" depart="8" />
    <vehicle id="up1_86" type="Car" color="yellow" route="up1" departSpeed="desired" depart="8" />
    <vehicle id="up2_87" type="Car" color="yellow" route="up2" departSpeed="desired" depart="8" />
    <vehicle id="left1_88" type="Car" color="yellow" route="left1" departSpeed="desired" depart="8" />
    <vehicle id="left2_89" type="Car" color="yellow" route="left2" departSpeed="desired" depart="8" />
    <vehicle id="right1_90" type="Car" color="yellow" route="right1" departSpeed="desired" depart="9" />
    <vehicle id="right2_91" type="Car" color="yellow" route="right2" departSpeed="desired" depart="9" />
    <vehicle id="right3_92" type="Car" color="yellow" route="right3" departSpeed="desired" depart="9" />
    <vehicle id="down1_93" type="Car" color="yellow" route="down1" departSpeed="desired" depart="9" />
    <vehicle id="down2_94" type="Car" color="yellow" route="down2" departSpeed="desired" depart="9" />
    <vehicle id="down3_95" type="Car" color="yellow" route="down3" departSpeed="desired" depart="9" />
    <vehicle id="up1_96" type="Car" color="yellow" route="up1" departSpeed="desired" depart="9" />
    <vehicle id="up2_97" type="Car" color="yellow" route="up2" departSpeed="desired" depart="9" />
    <vehicle id="left1_98" type="Car" color="yellow" route="left1" departSpeed="desired" depart="9" />
    <vehicle id="left2_99" type="Car" color="yellow" route="left2" departSpeed="desired" depart="9" />
    <vehicle id="right1_100" type="Car" color="yellow" route="right1" departSpeed="desired" depart="10" />
    <vehicle id="right2_101" type="Car" color="yellow" route="right2" departSpeed="desired" depart="10" />
    <vehicle id="right3_102" type="Car" color="yellow" route="right3" departSpeed="desired" depart="10" />
    <vehicle id="down1_103" type="Car" color="yellow" route="down1" departSpeed="desired" depart="10" />
    <vehicle id="down2_104" type="Car" color="yellow" route="down2" departSpeed="desired" depart="10" />
    <vehicle id="down3_105" type="Car" color="yellow" route="down3" departSpeed="desired" depart="10" />
    <vehicle id="up1_106" type="Car" color="yellow" route="up1" departSpeed="desired" depart="10" />
    <vehicle id="up2_107" type="Car" color="yellow" route="up2" departSpeed="desired" depart="10" />
    <vehicle id="left1_108" type="Car" color="yellow" route="left1" departSpeed="desired" depart="10" />
    <vehicle id="left2_109" type="Car" color="yellow" route="left2" departSpeed="desired" depart="10" />
    <vehicle id="right1_110" type="Car" color="yellow" route="right1" departSpeed="desired" depart="11" />
    <vehicle id="right2_111" type="Car" color="yellow" route="right2" departSpeed="desired" depart="11" />
    <vehicle id="right3_112" type="Car" color="yellow" route="right3" departSpeed="desired" depart="11" />
    <vehicle id="down1_113" type="Car" color="yellow" route="down1" departSpeed="desired" depart="11" />
    <vehicle id="down2_114" type="Car" color="yellow" route="down2" departSpeed="desired" depart="11" />
    <vehicle id="down3_115" type="Car" color="yellow" route="down3" departSpeed="desired" depart="11" />
    <vehicle id="up1_116" type="Car" color="yellow" route="up1" departSpeed="desired" depart="11" />
    <vehicle id="up2_117" type="Car" color="yellow" route="up2" departSpeed="desired" depart="11" />
    <vehicle id="left1_118" type="Car" color="yellow" route="left1" departSpeed="desired" depart="11" />
    <vehicle id="left2_119" type="Car" color="yellow" route="left2" departSpeed="desired" depart="11" />
    <vehicle id="right1_120" type="Car" color="yellow" route="right1" departSpeed="desired" depart="12" />
    <vehicle id="right2_121" type="Car" color="yellow" route="right2" departSpeed="desired" depart="12" />
    <vehicle id="right3_122" type="Car" color="yellow" route="right3" departSpeed="desired" depart="12" />
    <vehicle id="down1_123" type="Car" color="yellow" route="down1" departSpeed="desired" depart="12" />
    <vehicle id="down2_124" type="Car" color="yellow" route="down2" departSpeed="desired" depart="12" />
    <vehicle id="down3_125" type="Car" color="yellow" route="down3" departSpeed="desired" depart="12" />
    <vehicle id="up1_126" type="Car" color="yellow" route="up1" departSpeed="desired" depart="12" />
    <vehicle id="up2_127" type="Car" color="yellow" route="up2" departSpeed="desired" depart="12" />
    <vehicle id="left1_128" type="Car" color="yellow" route="left1" departSpeed="desired" depart="12" />
    <vehicle id="left2_129" type="Car" color="yellow" route="left2" departSpeed="desired" depart="12" />
    <vehicle id="right1_130" type="Car" color="yellow" route="right1" departSpeed="desired" depart="13" />
    <vehicle id="right2_131" type="Car" color="yellow" route="right2" departSpeed="desired" depart="13" />
    <vehicle id="right3_132" type="Car" color="yellow" route="right3" departSpeed="desired" depart="13" />
    <vehicle id="down1_133" type="Car" color="yellow" route="down1" departSpeed="desired" depart="13" />
    <vehicle id="down2_134" type="Car" color="yellow" route="down2" departSpeed="desired" depart="13" />
    <vehicle id="down3_135" type="Car" color="yellow" route="down3" departSpeed="desired" depart="13" />
    <vehicle id="up1_136" type="Car" color="yellow" route="up1" departSpeed="desired" depart="13" />
    <vehicle id="up2_137" type="Car" color="yellow" route="up2" departSpeed="desired" depart="13" />
    <vehicle id="left1_138" type="Car" color="yellow" route="left1" departSpeed="desired" depart="13" />
    <vehicle id="left2_139" type="Car" color="yellow" route="left2" departSpeed="desired" depart="13" />
    <vehicle id="right1_140" type="Car" color="yellow" route="right1" departSpeed="desired" depart="14" />
    <vehicle id="right2_141" type="Car" color="yellow" route="right2" departSpeed="desired" depart="14" />
    <vehicle id="right3_142" type="Car" color="yellow" route="right3" departSpeed="desired" depart="14" />
    <vehicle id="down1_143" type="Car" color="yellow" route="down1" departSpeed="desired" depart="14" />
    <vehicle id="down2_144" type="Car" color="yellow" route="down2" departSpeed="desired" depart="14" />
    <vehicle id="down3_145" type="Car" color="yellow" route="down3" departSpeed="desired" depart="14" />
    <vehicle id="up1_146" type="Car" color="yellow" route="up1" departSpeed="desired" depart="14" />
    <vehicle id="up2_147" type="Car" color="yellow" route="up2" departSpeed="desired" depart="14" />
    <vehicle id="left1_148" type="Car" color="yellow" route="left1" departSpeed="desired" depart="14" />
    <vehicle id="left2_149" type="Car" color="yellow" route="left2" departSpeed="desired" depart="14" />
    <vehicle id="right1_150" type="Car" color="yellow" route="right1" departSpeed="desired" depart="15" />
    <vehicle id="right2_151" type="Car" color="yellow" route="right2" departSpeed="desired" depart="15" />
    <vehicle id="right3_152" type="Car" color="yellow" route="right3" departSpeed="desired" depart="15" />
    <vehicle id="down1_153" type="Car" color="yellow" route="down1" departSpeed="desired" depart="15" />
    <vehicle id="down2_154" type="Car" color="yellow" route="down2" departSpeed="desired" depart="15" />
    <vehicle id="down3_155" type="Car" color="yellow" route="down3" departSpeed="desired" depart="15" />
    <vehicle id="up1_156" type="Car" color="yellow" route="up1" departSpeed="desired" depart="15" />
    <vehicle id="up2_157" type="Car" color="yellow" route="up2" departSpeed="desired" depart="15" />
    <vehicle id="left1_158" type="Car" color="yellow" route="left1" departSpeed="desired" depart="15" />
    <vehicle id="left2_159" type="Car" color="yellow" route="left2" departSpeed="desired" depart="15" />
    <vehicle id="right1_160" type="Car" color="yellow" route="right1" departSpeed="desired" depart="16" />
    <vehicle id="right2_161" type="Car" color="yellow" route="right2" departSpeed="desired" depart="16" />
    <vehicle id="right3_162" type="Car" color="yellow" route="right3" departSpeed="desired" depart="16" />
    <vehicle id="down1_163" type="Car" color="yellow" route="down1" departSpeed="desired" depart="16" />
    <vehicle id="down2_164" type="Car" color="yellow" route="down2" departSpeed="desired" depart="16" />
    <vehicle id="down3_165" type="Car" color="yellow" route="down3" departSpeed="desired" depart="16" />
    <vehicle id="up1_166" type="Car" color="yellow" route="up1" departSpeed="desired" depart="16" />
    <vehicle id="up2_167" type="Car" color="yellow" route="up2" departSpeed="desired" depart="16" />
    <vehicle id="left1_168" type="Car" color="yellow" route="left1" departSpeed="desired" depart="16" />
    <vehicle id="left2_169" type="Car" color="yellow" route="left2" departSpeed="desired" depart="16" />
    <vehicle id="right1_170" type="Car" color="yellow" route="right1" departSpeed="desired" depart="17" />
    <vehicle id="right2_171" type="Car" color="yellow" route="right2" departSpeed="desired" depart="17" />
    <vehicle id="right3_172" type="Car" color="yellow" route="right3" departSpeed="desired" depart="17" />
    <vehicle id="down1_173" type="Car" color="yellow" route="down1" departSpeed="desired" depart="17" />
    <vehicle id="down2_174" type="Car" color="yellow" route="down2" departSpeed="desired" depart="17" />
    <vehicle id="down3_175" type="Car" color="yellow" route="down3" departSpeed="desired" depart="17" />
    <vehicle id="up1_176" type="Car" color="yellow" route="up1" departSpeed="desired" depart="17" />
    <vehicle id="up2_177" type="Car" color="yellow" route="up2" departSpeed="desired" depart="17" />
    <vehicle id="left1_178" type="Car" color="yellow" route="left1" departSpeed="desired" depart="17" />
    <vehicle id="left2_179" type="Car" color="yellow" route="left2" departSpeed="desired" depart="17" />
    <vehicle id="right1_180" type="Car" color="yellow" route="right1" departSpeed="desired" depart="18" />
    <vehicle id="right2_181" type="Car" color="yellow" route="right2" departSpeed="desired" depart="18" />
    <vehicle id="right3_182" type="Car" color="yellow" route="right3" departSpeed="desired" depart="18" />
    <vehicle id="down1_183" type="Car" color="yellow" route="down1" departSpeed="desired" depart="18" />
    <vehicle id="down2_184" type="Car" color="yellow" route="down2" departSpeed="desired" depart="18" />
    <vehicle id="down3_185" type="Car" color="yellow" route="down3" departSpeed="desired" depart="18" />
    <vehicle id="up1_186" type="Car" color="yellow" route="up1" departSpeed="desired" depart="18" />
    <vehicle id="up2_187" type="Car" color="yellow" route="up2" departSpeed="desired" depart="18" />
    <vehicle id="left1_188" type="Car" color="yellow" route="left1" departSpeed="desired" depart="18" />
    <vehicle id="left2_189" type="Car" color="yellow" route="left2" departSpeed="desired" depart="18" />
    <vehicle id="right1_190" type="Car" color="yellow" route="right1" departSpeed="desired" depart="19" />
    <vehicle id="right2_191" type="Car" color="yellow" route="right2" departSpeed="desired" depart="19" />
    <vehicle id="right3_192" type="Car" color="yellow" route="right3" departSpeed="desired" depart="19" />
    <vehicle id="down1_193" type="Car" color="yellow" route="down1" departSpeed="desired" depart="19" />
    <vehicle id="down2_194" type="Car" color="yellow" route="down2" departSpeed="desired" depart="19" />
    <vehicle id="down3_195" type="Car" color="yellow" route="down3" departSpeed="desired" depart="19" />
    <vehicle id="up1_196" type="Car" color="yellow" route="up1" departSpeed="desired" depart="19" />
    <vehicle id="up2_197" type="Car" color="yellow" route="up2" departSpeed="desired" depart="19" />
    <vehicle id="left1_198" type="Car" color="yellow" route="left1" departSpeed="desired" depart="19" />
    <vehicle id="left2_199" type="Car" color="yellow" route="left2" departSpeed="desired" depart="19" />
    <vehicle id="right1_200" type="Car" color="yellow" route="right1" departSpeed="desired" depart="20" />
    <vehicle id="right2_201" type="Car" color="yellow" route="right2" departSpeed="desired" depart="20" />
    <vehicle id="right3_202" type="Car" color="yellow" route="right3" departSpeed="desired" depart="20" />
    <vehicle id="down1_203" type="Car" color="yellow" route="down1" departSpeed="desired" depart="20" />
    <vehicle id="down2_204" type="Car" color="yellow" route="down2" departSpeed="desired" depart="20" />
    <vehicle id="down3_205" type="Car" color="yellow" route="down3" departSpeed="desired" depart="20" />
    <vehicle id="up1_206" type="Car" color="yellow" route="up1" departSpeed="desired" depart="20" />
    <vehicle id="up2_207" type="Car" color="yellow" route="up2" departSpeed="desired" depart="20" />
    <vehicle id="left1_208" type="Car" color="yellow" route="left1" departSpeed="desired" depart="20" />
    <vehicle id="left2_209" type="Car" color="yellow" route="left2" departSpeed="desired" depart="20" />
    <vehicle id="right1_210" type="Car" color="yellow" route="right1" departSpeed="desired" depart="21" />
    <vehicle id="right2_211" type="Car" color="yellow" route="right2" departSpeed="desired" depart="21" />
    <vehicle id="right3_212" type="Car" color="yellow" route="right3" departSpeed="desired" depart="21" />
    <vehicle id="down1_213" type="Car" color="yellow" route="down1" departSpeed="desired" depart="21" />
    <vehicle id="down2_214" type="Car" color="yellow" route="down2" departSpeed="desired" depart="21" />
    <vehicle id="down3_215" type="Car" color="yellow" route="down3" departSpeed="desired" depart="21" />
    <vehicle id="up1_216" type="Car" color="yellow" route="up1" departSpeed="desired" depart="21" />
    <vehicle id="up2_217" type="Car" color="yellow" route="up2" departSpeed="desired" depart="21" />
    <vehicle id="left1_218" type="Car" color="yellow" route="left1" departSpeed="desired" depart="21" />
    <vehicle id="left2_219" type="Car" color="yellow" route="left2" departSpeed="desired" depart="21" />
    <vehicle id="right1_220_emergency" type="Car" color="red" route="right1" departSpeed="desired" depart="22" />
    <vehicle id="right1_221" type="Car" color="yellow" route="right1" departSpeed="desired" depart="22" />
    <vehicle id="right2_222" type="Car" color="yellow" route="right2" departSpeed="desired" depart="22" />
    <vehicle id="right3_223" type="Car" color="yellow" route="right3" departSpeed="desired" depart="22" />
    <vehicle id="down1_224" type="Car" color="yellow" route="down1" departSpeed="desired" depart="22" />
    <vehicle id="down2_225" type="Car" color="yellow" route="down2" departSpeed="desired" depart="22" />
    <vehicle id="down3_226" type="Car" color="yellow" route="down3" departSpeed="desired" depart="22" />
    <vehicle id="up1_227" type="Car" color="yellow" route="up1" departSpeed="desired" depart="22" />
    <vehicle id="up2_228" type="Car" color="yellow" route="up2" departSpeed="desired" depart="22" />
    <vehicle id="left1_229" type="Car" color="yellow" route="left1" departSpeed="desired" depart="22" />
    <vehicle id="left2_230" type="Car" color="yellow" route="left2" departSpeed="desired" depart="22" />
    <vehicle id="right1_231" type="Car" color="yellow" route="right1" departSpeed="desired" depart="23" />
    <vehicle id="right2_232" type="Car" color="yellow" route="right2" departSpeed="desired" depart="23" />
    <vehicle id="right3_233" type="Car" color="yellow" route="right3" departSpeed="desired" depart="23" />
    <vehicle id="down1_234" type="Car" color="yellow" route="down1" departSpeed="desired" depart="23" />
    <vehicle id="down2_235" type="Car" color="yellow" route="down2" departSpeed="desired" depart="23" />
    <vehicle id="down3_236" type="Car" color="yellow" route="down3" departSpeed="desired" depart="23" />
    <vehicle id="up1_237" type="Car" color="yellow" route="up1" departSpeed="desired" depart="23" />
    <vehicle id="up2_238" type="Car" color="yellow" route="up2" departSpeed="desired" depart="23" />
    <vehicle id="left1_239" type="Car" color="yellow" route="left1" departSpeed="desired" depart="23" />
    <vehicle id="left2_240" type="Car" color="yellow" route="left2" departSpeed="desired" depart="23" />
    <vehicle id="right1_241" type="Car" color="yellow" route="right1" departSpeed="desired" depart="24" />
    <vehicle id="right2_242" type="Car" color="yellow" route="right2" departSpeed="desired" depart="24" />
    <vehicle id="right3_243" type="Car" color="yellow" route="right3" departSpeed="desired" depart="24" />
    <vehicle id="down1_244" type="Car" color="yellow" route="down1" departSpeed="desired" depart="24" />
    <vehicle id="down2_245" type="Car" color="yellow" route="down2" departSpeed="desired" depart="24" />
    <vehicle id="down3_246" type="Car" color="yellow" route="down3" departSpeed="desired" depart="24" />
    <vehicle id="up1_247" type="Car" color="yellow" route="up1" departSpeed="desired" depart="24" />
    <vehicle id="up2_248" type="Car" color="yellow" route="up2" departSpeed="desired" depart="24" />
    <vehicle id="left1_249" type="Car" color="yellow" route="left1" departSpeed="desired" depart="24" />
    <vehicle id="left2_250" type="Car" color="yellow" route="left2" departSpeed="desired" depart="24" />
    <vehicle id="right1_251" type="Car" color="yellow" route="right1" departSpeed="desired" depart="25" />
    <vehicle id="right2_252" type="Car" color="yellow" route="right2" departSpeed="desired" depart="25" />
    <vehicle id="right3_253" type="Car" color="yellow" route="right3" departSpeed="desired" depart="25" />
    <vehicle id="down1_254" type="Car" color="yellow" route="down1" departSpeed="desired" depart="25" />
    <vehicle id="down2_255" type="Car" color="yellow" route="down2" departSpeed="desired" depart="25" />
    <vehicle id="down3_256" type="Car" color="yellow" route="down3" departSpeed="desired" depart="25" />
    <vehicle id="up1_257" type="Car" color="yellow" route="up1" departSpeed="desired" depart="25" />
    <vehicle id="up2_258" type="Car" color="yellow" route="up2" departSpeed="desired" depart="25" />
    <vehicle id="left1_259" type="Car" color="yellow" route="left1" departSpeed="desired" depart="25" />
    <vehicle id="left2_260" type="Car" color="yellow" route="left2" departSpeed="desired" depart="25" />
    <vehicle id="right1_261" type="Car" color="yellow" route="right1" departSpeed="desired" depart="26" />
    <vehicle id="right2_262" type="Car" color="yellow" route="right2" departSpeed="desired" depart="26" />
    <vehicle id="right3_263" type="Car" color="yellow" route="right3" departSpeed="desired" depart="26" />
    <vehicle id="down1_264" type="Car" color="yellow" route="down1" departSpeed="desired" depart="26" />
    <vehicle id="down2_265" type="Car" color="yellow" route="down2" departSpeed="desired" depart="26" />
    <vehicle id="down3_266" type="Car" color="yellow" route="down3" departSpeed="desired" depart="26" />
    <vehicle id="up1_267" type="Car" color="yellow" route="up1" departSpeed="desired" depart="26" />
    <vehicle id="up2_268" type="Car" color="yellow" route="up2" departSpeed="desired" depart="26" />
    <vehicle id="left1_269" type="Car" color="yellow" route="left1" departSpeed="desired" depart="26" />
    <vehicle id="left2_270" type="Car" color="yellow" route="left2" departSpeed="desired" depart="26" />
    <vehicle id="right1_271" type="Car" color="yellow" route="right1" departSpeed="desired" depart="27" />
    <vehicle id="right2_272" type="Car" color="yellow" route="right2" departSpeed="desired" depart="27" />
    <vehicle id="right3_273" type="Car" color="yellow" route="right3" departSpeed="desired" depart="27" />
    <vehicle id="down1_274" type="Car" color="yellow" route="down1" departSpeed="desired" depart="27" />
    <vehicle id="down2_275" type="Car" color="yellow" route="down2" departSpeed="desired" depart="27" />
    <vehicle id="down3_276" type="Car" color="yellow" route="down3" departSpeed="desired" depart="27" />
    <vehicle id="up1_277" type="Car" color="yellow" route="up1" departSpeed="desired" depart="27" />
    <vehicle id="up2_278" type="Car" color="yellow" route="up2" departSpeed="desired" depart="27" />