<?xml version="1.0" encoding="UTF-8"?>
<edges xmlns:xsi="http://www.w3.org/2001/XMLSchema-instance" xsi:noNamespaceSchemaLocation="http://sumo.dlr.de/xsd/edges_file.xsd">

   	<edge from="1"  id="1to2"  to="2" priority="78" numLanes="1" speed="19.444"/>
	<edge from="2"  id="2to3"  to="3" priority="78" numLanes="1" speed="19.444"/>
	<edge from="3"  id="outr1"  to="4" priority="78" numLanes="1" speed="19.444"/>
	<edge from="8"  id="8to7"  to="7" priority="78" numLanes="1" speed="19.444"/>
	<edge from="7"  id="7to6"  to="6" priority="78" numLanes="1" speed="19.444"/>
	<edge from="6"  id="outl1"  to="5" priority="78" numLanes="1" speed="19.444"/>
	<edge from="9"  id="9to2"  to="2" priority="78" numLanes="1" speed="19.444"/>
	<edge from="2"  id="2to6"  to="6" priority="78" numLanes="1" speed="19.444"/>
	<edge from="6"  id="outs1"  to="10" priority="78" numLanes="1" speed="19.444"/>
	<edge from="12" id="12to7" to="7" priority="78" numLanes="1" speed="19.444"/>
	<edge from="7"  id="7to3"  to="3" priority="78" numLanes="1" speed="19.444"/>
	<edge from="3"  id="outn1"  to="11" priority="78" numLanes="1" speed="19.444"/>
</edges>