<?xml version="1.0" encoding="UTF-8"?>

<!-- generated on Tue Dec 28 15:27:03 2021 by Eclipse SUMO netedit Version 1.6.0
<configuration xmlns:xsi="http://www.w3.org/2001/XMLSchema-instance" xsi:noNamespaceSchemaLocation="http://sumo.dlr.de/xsd/netconvertConfiguration.xsd">

    <input>
        <sumo-net-file value="/Users/cesarleonardogonzalezpinzon/Desktop/DIM_algorithms/Sumo-2x2/dim_sumo/data/ciudad5x5_semaforo.net.xml"/>
    </input>

    <output>
        <output-file value="/Users/cesarleonardogonzalezpinzon/Desktop/DIM_algorithms/Sumo-2x2/dim_sumo/data/ciudad5x5_semaforo.net.xml"/>
    </output>

    <processing>
        <geometry.min-radius.fix.railways value="false"/>
        <geometry.max-grade.fix value="false"/>
        <offset.disable-normalization value="true"/>
        <lefthand value="false"/>
    </processing>

    <junctions>
        <no-turnarounds value="true"/>
        <junctions.corner-detail value="5"/>
        <junctions.limit-turn-speed value="5.5"/>
        <rectangular-lane-cut value="false"/>
    </junctions>

    <pedestrian>
        <walkingareas value="false"/>
    </pedestrian>

    <report>
        <aggregate-warnings value="5"/>
    </report>

</configuration>
-->

<net version="1.6" junctionCornerDetail="5" limitTurnSpeed="5.50" xmlns:xsi="http://www.w3.org/2001/XMLSchema-instance" xsi:noNamespaceSchemaLocation="http://sumo.dlr.de/xsd/net_file.xsd">

    <location netOffset="1500.00,2500.00" convBoundary="0.00,0.00,3000.00,3000.00" origBoundary="-1500.00,-2500.00,1500.00,500.00" projParameter="!"/>

    <edge id=":10_0" function="internal">
        <lane id=":10_0_0" index="0" speed="6.51" length="9.03" shape="1007.20,2001.60 1004.75,2001.95 1003.00,2003.00 1001.95,2004.75 1001.60,2007.20"/>
    </edge>
    <edge id=":10_1" function="internal">
        <lane id=":10_1_0" index="0" speed="19.44" length="11.20" shape="1007.20,2001.60 996.00,2001.60"/>
    </edge>
    <edge id=":10_2" function="internal">
        <lane id=":10_2_0" index="0" speed="19.44" length="11.20" shape="1001.60,1996.00 1001.60,2007.20"/>
    </edge>
    <edge id=":10_3" function="internal">
        <lane id=":10_3_0" index="0" speed="6.51" length="9.03" shape="1001.60,1996.00 1001.25,1998.45 1000.20,2000.20 998.45,2001.25 996.00,2001.60"/>
    </edge>
    <edge id=":11_0" function="internal">
        <lane id=":11_0_0" index="0" speed="6.51" length="9.03" shape="1498.40,2007.20 1498.05,2004.75 1497.00,2003.00 1495.25,2001.95 1492.80,2001.60"/>
    </edge>
    <edge id=":11_1" function="internal">
        <lane id=":11_1_0" index="0" speed="19.44" length="11.20" shape="1498.40,2007.20 1498.40,1996.00"/>
    </edge>
    <edge id=":11_2" function="internal">
        <lane id=":11_2_0" index="0" speed="19.44" length="11.20" shape="1504.00,2001.60 1492.80,2001.60"/>
    </edge>
    <edge id=":11_3" function="internal">
        <lane id=":11_3_0" index="0" speed="6.51" length="9.03" shape="1504.00,2001.60 1501.55,2001.25 1499.80,2000.20 1498.75,1998.45 1498.40,1996.00"/>
    </edge>
    <edge id=":12_0" function="internal">
        <lane id=":12_0_0" index="0" speed="6.51" length="9.03" shape="2007.20,2001.60 2004.75,2001.95 2003.00,2003.00 2001.95,2004.75 2001.60,2007.20"/>
    </edge>
    <edge id=":12_1" function="internal">
        <lane id=":12_1_0" index="0" speed="19.44" length="11.20" shape="2007.20,2001.60 1996.00,2001.60"/>
    </edge>
    <edge id=":12_2" function="internal">
        <lane id=":12_2_0" index="0" speed="19.44" length="11.20" shape="2001.60,1996.00 2001.60,2007.20"/>
    </edge>
    <edge id=":12_3" function="internal">
        <lane id=":12_3_0" index="0" speed="6.51" length="9.03" shape="2001.60,1996.00 2001.25,1998.45 2000.20,2000.20 1998.45,2001.25 1996.00,2001.60"/>
    </edge>
    <edge id=":13_0" function="internal">
        <lane id=":13_0_0" index="0" speed="6.51" length="9.03" shape="2498.40,2007.20 2498.05,2004.75 2497.00,2003.00 2495.25,2001.95 2492.80,2001.60"/>
    </edge>
    <edge id=":13_1" function="internal">
        <lane id=":13_1_0" index="0" speed="19.44" length="11.20" shape="2498.40,2007.20 2498.40,1996.00"/>
    </edge>
    <edge id=":13_2" function="internal">
        <lane id=":13_2_0" index="0" speed="19.44" length="11.20" shape="2504.00,2001.60 2492.80,2001.60"/>
    </edge>
    <edge id=":13_3" function="internal">
        <lane id=":13_3_0" index="0" speed="6.51" length="9.03" shape="2504.00,2001.60 2501.55,2001.25 2499.80,2000.20 2498.75,1998.45 2498.40,1996.00"/>
    </edge>
    <edge id=":16_0" function="internal">
        <lane id=":16_0_0" index="0" speed="19.44" length="11.20" shape="498.40,1504.00 498.40,1492.80"/>
    </edge>
    <edge id=":16_1" function="internal">
        <lane id=":16_1_0" index="0" speed="6.51" length="9.03" shape="498.40,1504.00 498.75,1501.55 499.80,1499.80 501.55,1498.75 504.00,1498.40"/>
    </edge>
    <edge id=":16_2" function="internal">
        <lane id=":16_2_0" index="0" speed="6.51" length="9.03" shape="492.80,1498.40 495.25,1498.05 497.00,1497.00 498.05,1495.25 498.40,1492.80"/>
    </edge>
    <edge id=":16_3" function="internal">
        <lane id=":16_3_0" index="0" speed="19.44" length="11.20" shape="492.80,1498.40 504.00,1498.40"/>
    </edge>
    <edge id=":17_0" function="internal">
        <lane id=":17_0_0" index="0" speed="6.51" length="9.03" shape="1001.60,1492.80 1001.95,1495.25 1003.00,1497.00 1004.75,1498.05 1007.20,1498.40"/>
    </edge>
    <edge id=":17_1" function="internal">
        <lane id=":17_1_0" index="0" speed="19.44" length="11.20" shape="1001.60,1492.80 1001.60,1504.00"/>
    </edge>
    <edge id=":17_2" function="internal">
        <lane id=":17_2_0" index="0" speed="19.44" length="11.20" shape="996.00,1498.40 1007.20,1498.40"/>
    </edge>
    <edge id=":17_3" function="internal">
        <lane id=":17_3_0" index="0" speed="6.51" length="9.03" shape="996.00,1498.40 998.45,1498.75 1000.20,1499.80 1001.25,1501.55 1001.60,1504.00"/>
    </edge>
    <edge id=":18_0" function="internal">
        <lane id=":18_0_0" index="0" speed="19.44" length="11.20" shape="1498.40,1504.00 1498.40,1492.80"/>
    </edge>
    <edge id=":18_1" function="internal">
        <lane id=":18_1_0" index="0" speed="6.51" length="9.03" shape="1498.40,1504.00 1498.75,1501.55 1499.80,1499.80 1501.55,1498.75 1504.00,1498.40"/>
    </edge>
    <edge id=":18_2" function="internal">
        <lane id=":18_2_0" index="0" speed="6.51" length="9.03" shape="1492.80,1498.40 1495.25,1498.05 1497.00,1497.00 1498.05,1495.25 1498.40,1492.80"/>
    </edge>
    <edge id=":18_3" function="internal">
        <lane id=":18_3_0" index="0" speed="19.44" length="11.20" shape="1492.80,1498.40 1504.00,1498.40"/>
    </edge>
    <edge id=":19_0" function="internal">
        <lane id=":19_0_0" index="0" speed="6.51" length="9.03" shape="2001.60,1492.80 2001.95,1495.25 2003.00,1497.00 2004.75,1498.05 2007.20,1498.40"/>
    </edge>
    <edge id=":19_1" function="internal">
        <lane id=":19_1_0" index="0" speed="19.44" length="11.20" shape="2001.60,1492.80 2001.60,1504.00"/>
    </edge>
    <edge id=":19_2" function="internal">
        <lane id=":19_2_0" index="0" speed="19.44" length="11.20" shape="1996.00,1498.40 2007.20,1498.40"/>
    </edge>
    <edge id=":19_3" function="internal">
        <lane id=":19_3_0" index="0" speed="6.51" length="9.03" shape="1996.00,1498.40 1998.45,1498.75 2000.20,1499.80 2001.25,1501.55 2001.60,1504.00"/>
    </edge>
    <edge id=":2_0" function="internal">
        <lane id=":2_0_0" index="0" speed="19.44" length="11.20" shape="498.40,2504.00 498.40,2492.80"/>
    </edge>
    <edge id=":2_1" function="internal">
        <lane id=":2_1_0" index="0" speed="6.51" length="9.03" shape="498.40,2504.00 498.75,2501.55 499.80,2499.80 501.55,2498.75 504.00,2498.40"/>
    </edge>
    <edge id=":2_2" function="internal">
        <lane id=":2_2_0" index="0" speed="6.51" length="9.03" shape="492.80,2498.40 495.25,2498.05 497.00,2497.00 498.05,2495.25 498.40,2492.80"/>
    </edge>
    <edge id=":2_3" function="internal">
        <lane id=":2_3_0" index="0" speed="19.44" length="11.20" shape="492.80,2498.40 504.00,2498.40"/>
    </edge>
    <edge id=":20_0" function="internal">
        <lane id=":20_0_0" index="0" speed="19.44" length="11.20" shape="2498.40,1504.00 2498.40,1492.80"/>
    </edge>
    <edge id=":20_1" function="internal">
        <lane id=":20_1_0" index="0" speed="6.51" length="9.03" shape="2498.40,1504.00 2498.75,1501.55 2499.80,1499.80 2501.55,1498.75 2504.00,1498.40"/>
    </edge>
    <edge id=":20_2" function="internal">
        <lane id=":20_2_0" index="0" speed="6.51" length="9.03" shape="2492.80,1498.40 2495.25,1498.05 2497.00,1497.00 2498.05,1495.25 2498.40,1492.80"/>
    </edge>
    <edge id=":20_3" function="internal">
        <lane id=":20_3_0" index="0" speed="19.44" length="11.20" shape="2492.80,1498.40 2504.00,1498.40"/>
    </edge>
    <edge id=":23_0" function="internal">
        <lane id=":23_0_0" index="0" speed="6.51" length="9.03" shape="498.40,1007.20 498.05,1004.75 497.00,1003.00 495.25,1001.95 492.80,1001.60"/>
    </edge>
    <edge id=":23_1" function="internal">
        <lane id=":23_1_0" index="0" speed="19.44" length="11.20" shape="498.40,1007.20 498.40,996.00"/>
    </edge>
    <edge id=":23_2" function="internal">
        <lane id=":23_2_0" index="0" speed="19.44" length="11.20" shape="504.00,1001.60 492.80,1001.60"/>
    </edge>
    <edge id=":23_3" function="internal">
        <lane id=":23_3_0" index="0" speed="6.51" length="9.03" shape="504.00,1001.60 501.55,1001.25 499.80,1000.20 498.75,998.45 498.40,996.00"/>
    </edge>
    <edge id=":24_0" function="internal">
        <lane id=":24_0_0" index="0" speed="6.51" length="9.03" shape="1007.20,1001.60 1004.75,1001.95 1003.00,1003.00 1001.95,1004.75 1001.60,1007.20"/>
    </edge>
    <edge id=":24_1" function="internal">
        <lane id=":24_1_0" index="0" speed="19.44" length="11.20" shape="1007.20,1001.60 996.00,1001.60"/>
    </edge>
    <edge id=":24_2" function="internal">
        <lane id=":24_2_0" index="0" speed="19.44" length="11.20" shape="1001.60,996.00 1001.60,1007.20"/>
    </edge>
    <edge id=":24_3" function="internal">
        <lane id=":24_3_0" index="0" speed="6.51" length="9.03" shape="1001.60,996.00 1001.25,998.45 1000.20,1000.20 998.45,1001.25 996.00,1001.60"/>
    </edge>
    <edge id=":25_0" function="internal">
        <lane id=":25_0_0" index="0" speed="6.51" length="9.03" shape="1498.40,1007.20 1498.05,1004.75 1497.00,1003.00 1495.25,1001.95 1492.80,1001.60"/>
    </edge>
    <edge id=":25_1" function="internal">
        <lane id=":25_1_0" index="0" speed="19.44" length="11.20" shape="1498.40,1007.20 1498.40,996.00"/>
    </edge>
    <edge id=":25_2" function="internal">
        <lane id=":25_2_0" index="0" speed="19.44" length="11.20" shape="1504.00,1001.60 1492.80,1001.60"/>
    </edge>
    <edge id=":25_3" function="internal">
        <lane id=":25_3_0" index="0" speed="6.51" length="9.03" shape="1504.00,1001.60 1501.55,1001.25 1499.80,1000.20 1498.75,998.45 1498.40,996.00"/>
    </edge>
    <edge id=":26_0" function="internal">
        <lane id=":26_0_0" index="0" speed="6.51" length="9.03" shape="2007.20,1001.60 2004.75,1001.95 2003.00,1003.00 2001.95,1004.75 2001.60,1007.20"/>
    </edge>
    <edge id=":26_1" function="internal">
        <lane id=":26_1_0" index="0" speed="19.44" length="11.20" shape="2007.20,1001.60 1996.00,1001.60"/>
    </edge>
    <edge id=":26_2" function="internal">
        <lane id=":26_2_0" index="0" speed="19.44" length="11.20" shape="2001.60,996.00 2001.60,1007.20"/>
    </edge>
    <edge id=":26_3" function="internal">
        <lane id=":26_3_0" index="0" speed="6.51" length="9.03" shape="2001.60,996.00 2001.25,998.45 2000.20,1000.20 1998.45,1001.25 1996.00,1001.60"/>
    </edge>
    <edge id=":27_0" function="internal">
        <lane id=":27_0_0" index="0" speed="6.51" length="9.03" shape="2498.40,1007.20 2498.05,1004.75 2497.00,1003.00 2495.25,1001.95 2492.80,1001.60"/>
    </edge>
    <edge id=":27_1" function="internal">
        <lane id=":27_1_0" index="0" speed="19.44" length="11.20" shape="2498.40,1007.20 2498.40,996.00"/>
    </edge>
    <edge id=":27_2" function="internal">
        <lane id=":27_2_0" index="0" speed="19.44" length="11.20" shape="2504.00,1001.60 2492.80,1001.60"/>
    </edge>
    <edge id=":27_3" function="internal">
        <lane id=":27_3_0" index="0" speed="6.51" length="9.03" shape="2504.00,1001.60 2501.55,1001.25 2499.80,1000.20 2498.75,998.45 2498.40,996.00"/>
    </edge>
    <edge id=":3_0" function="internal">
        <lane id=":3_0_0" index="0" speed="6.51" length="9.03" shape="1001.60,2492.80 1001.95,2495.25 1003.00,2497.00 1004.75,2498.05 1007.20,2498.40"/>
    </edge>
    <edge id=":3_1" function="internal">
        <lane id=":3_1_0" index="0" speed="19.44" length="11.20" shape="1001.60,2492.80 1001.60,2504.00"/>
    </edge>
    <edge id=":3_2" function="internal">
        <lane id=":3_2_0" index="0" speed="19.44" length="11.20" shape="996.00,2498.40 1007.20,2498.40"/>
    </edge>
    <edge id=":3_3" function="internal">
        <lane id=":3_3_0" index="0" speed="6.51" length="9.03" shape="996.00,2498.40 998.45,2498.75 1000.20,2499.80 1001.25,2501.55 1001.60,2504.00"/>
    </edge>
    <edge id=":30_0" function="internal">
        <lane id=":30_0_0" index="0" speed="19.44" length="11.20" shape="498.40,504.00 498.40,492.80"/>
    </edge>
    <edge id=":30_1" function="internal">
        <lane id=":30_1_0" index="0" speed="6.51" length="9.03" shape="498.40,504.00 498.75,501.55 499.80,499.80 501.55,498.75 504.00,498.40"/>
    </edge>
    <edge id=":30_2" function="internal">
        <lane id=":30_2_0" index="0" speed="6.51" length="9.03" shape="492.80,498.40 495.25,498.05 497.00,497.00 498.05,495.25 498.40,492.80"/>
    </edge>
    <edge id=":30_3" function="internal">
        <lane id=":30_3_0" index="0" speed="19.44" length="11.20" shape="492.80,498.40 504.00,498.40"/>
    </edge>
    <edge id=":31_0" function="internal">
        <lane id=":31_0_0" index="0" speed="6.51" length="9.03" shape="1001.60,492.80 1001.95,495.25 1003.00,497.00 1004.75,498.05 1007.20,498.40"/>
    </edge>
    <edge id=":31_1" function="internal">
        <lane id=":31_1_0" index="0" speed="19.44" length="11.20" shape="1001.60,492.80 1001.60,504.00"/>
    </edge>
    <edge id=":31_2" function="internal">
        <lane id=":31_2_0" index="0" speed="19.44" length="11.20" shape="996.00,498.40 1007.20,498.40"/>
    </edge>
    <edge id=":31_3" function="internal">
        <lane id=":31_3_0" index="0" speed="6.51" length="9.03" shape="996.00,498.40 998.45,498.75 1000.20,499.80 1001.25,501.55 1001.60,504.00"/>
    </edge>
    <edge id=":32_0" function="internal">
        <lane id=":32_0_0" index="0" speed="19.44" length="11.20" shape="1498.40,504.00 1498.40,492.80"/>
    </edge>
    <edge id=":32_1" function="internal">
        <lane id=":32_1_0" index="0" speed="6.51" length="9.03" shape="1498.40,504.00 1498.75,501.55 1499.80,499.80 1501.55,498.75 1504.00,498.40"/>
    </edge>
    <edge id=":32_2" function="internal">
        <lane id=":32_2_0" index="0" speed="6.51" length="9.03" shape="1492.80,498.40 1495.25,498.05 1497.00,497.00 1498.05,495.25 1498.40,492.80"/>
    </edge>
    <edge id=":32_3" function="internal">
        <lane id=":32_3_0" index="0" speed="19.44" length="11.20" shape="1492.80,498.40 1504.00,498.40"/>
    </edge>
    <edge id=":33_0" function="internal">
        <lane id=":33_0_0" index="0" speed="6.51" length="9.03" shape="2001.60,492.80 2001.95,495.25 2003.00,497.00 2004.75,498.05 2007.20,498.40"/>
    </edge>
    <edge id=":33_1" function="internal">
        <lane id=":33_1_0" index="0" speed="19.44" length="11.20" shape="2001.60,492.80 2001.60,504.00"/>
    </edge>
    <edge id=":33_2" function="internal">
        <lane id=":33_2_0" index="0" speed="19.44" length="11.20" shape="1996.00,498.40 2007.20,498.40"/>
    </edge>
    <edge id=":33_3" function="internal">
        <lane id=":33_3_0" index="0" speed="6.51" length="9.03" shape="1996.00,498.40 1998.45,498.75 2000.20,499.80 2001.25,501.55 2001.60,504.00"/>
    </edge>
    <edge id=":34_0" function="internal">
        <lane id=":34_0_0" index="0" speed="19.44" length="11.20" shape="2498.40,504.00 2498.40,492.80"/>
    </edge>
    <edge id=":34_1" function="internal">
        <lane id=":34_1_0" index="0" speed="6.51" length="9.03" shape="2498.40,504.00 2498.75,501.55 2499.80,499.80 2501.55,498.75 2504.00,498.40"/>
    </edge>
    <edge id=":34_2" function="internal">
        <lane id=":34_2_0" index="0" speed="6.51" length="9.03" shape="2492.80,498.40 2495.25,498.05 2497.00,497.00 2498.05,495.25 2498.40,492.80"/>
    </edge>
    <edge id=":34_3" function="internal">
        <lane id=":34_3_0" index="0" speed="19.44" length="11.20" shape="2492.80,498.40 2504.00,498.40"/>
    </edge>
    <edge id=":4_0" function="internal">
        <lane id=":4_0_0" index="0" speed="19.44" length="11.20" shape="1498.40,2504.00 1498.40,2492.80"/>
    </edge>
    <edge id=":4_1" function="internal">
        <lane id=":4_1_0" index="0" speed="6.51" length="9.03" shape="1498.40,2504.00 1498.75,2501.55 1499.80,2499.80 1501.55,2498.75 1504.00,2498.40"/>
    </edge>
    <edge id=":4_2" function="internal">
        <lane id=":4_2_0" index="0" speed="6.51" length="9.03" shape="1492.80,2498.40 1495.25,2498.05 1497.00,2497.00 1498.05,2495.25 1498.40,2492.80"/>
    </edge>
    <edge id=":4_3" function="internal">
        <lane id=":4_3_0" index="0" speed="19.44" length="11.20" shape="1492.80,2498.40 1504.00,2498.40"/>
    </edge>
    <edge id=":5_0" function="internal">
        <lane id=":5_0_0" index="0" speed="6.51" length="9.03" shape="2001.60,2492.80 2001.95,2495.25 2003.00,2497.00 2004.75,2498.05 2007.20,2498.40"/>
    </edge>
    <edge id=":5_1" function="internal">
        <lane id=":5_1_0" index="0" speed="19.44" length="11.20" shape="2001.60,2492.80 2001.60,2504.00"/>
    </edge>
    <edge id=":5_2" function="internal">
        <lane id=":5_2_0" index="0" speed="19.44" length="11.20" shape="1996.00,2498.40 2007.20,2498.40"/>
    </edge>
    <edge id=":5_3" function="internal">
        <lane id=":5_3_0" index="0" speed="6.51" length="9.03" shape="1996.00,2498.40 1998.45,2498.75 2000.20,2499.80 2001.25,2501.55 2001.60,2504.00"/>
    </edge>
    <edge id=":6_0" function="internal">
        <lane id=":6_0_0" index="0" speed="19.44" length="11.20" shape="2498.40,2504.00 2498.40,2492.80"/>
    </edge>
    <edge id=":6_1" function="internal">
        <lane id=":6_1_0" index="0" speed="6.51" length="9.03" shape="2498.40,2504.00 2498.75,2501.55 2499.80,2499.80 2501.55,2498.75 2504.00,2498.40"/>
    </edge>
    <edge id=":6_2" function="internal">
        <lane id=":6_2_0" index="0" speed="6.51" length="9.03" shape="2492.80,2498.40 2495.25,2498.05 2497.00,2497.00 2498.05,2495.25 2498.40,2492.80"/>
    </edge>
    <edge id=":6_3" function="internal">
        <lane id=":6_3_0" index="0" speed="19.44" length="11.20" shape="2492.80,2498.40 2504.00,2498.40"/>
    </edge>
    <edge id=":9_0" function="internal">
        <lane id=":9_0_0" index="0" speed="6.51" length="9.03" shape="498.40,2007.20 498.05,2004.75 497.00,2003.00 495.25,2001.95 492.80,2001.60"/>
    </edge>
    <edge id=":9_1" function="internal">
        <lane id=":9_1_0" index="0" speed="19.44" length="11.20" shape="498.40,2007.20 498.40,1996.00"/>
    </edge>
    <edge id=":9_2" function="internal">
        <lane id=":9_2_0" index="0" speed="19.44" length="11.20" shape="504.00,2001.60 492.80,2001.60"/>
    </edge>
    <edge id=":9_3" function="internal">
        <lane id=":9_3_0" index="0" speed="6.51" length="9.03" shape="504.00,2001.60 501.55,2001.25 499.80,2000.20 498.75,1998.45 498.40,1996.00"/>
    </edge>

    <edge id="10to3" from="10" to="3" priority="78">
        <lane id="10to3_0" index="0" speed="19.44" length="485.60" shape="1001.60,2007.20 1001.60,2492.80"/>
    </edge>
    <edge id="10to9" from="10" to="9" priority="78">
        <lane id="10to9_0" index="0" speed="19.44" length="492.00" shape="996.00,2001.60 504.00,2001.60"/>
    </edge>
    <edge id="11to10" from="11" to="10" priority="78">
        <lane id="11to10_0" index="0" speed="19.44" length="485.60" shape="1492.80,2001.60 1007.20,2001.60"/>
    </edge>
    <edge id="11to18" from="11" to="18" priority="78">
        <lane id="11to18_0" index="0" speed="19.44" length="492.00" shape="1498.40,1996.00 1498.40,1504.00"/>
    </edge>
    <edge id="12to11" from="12" to="11" priority="78">
        <lane id="12to11_0" index="0" speed="19.44" length="492.00" shape="1996.00,2001.60 1504.00,2001.60"/>
    </edge>
    <edge id="12to5" from="12" to="5" priority="78">
        <lane id="12to5_0" index="0" speed="19.44" length="485.60" shape="2001.60,2007.20 2001.60,2492.80"/>
    </edge>
    <edge id="13to12" from="13" to="12" priority="78">
        <lane id="13to12_0" index="0" speed="19.44" length="485.60" shape="2492.80,2001.60 2007.20,2001.60"/>
    </edge>
    <edge id="13to20" from="13" to="20" priority="78">
        <lane id="13to20_0" index="0" speed="19.44" length="492.00" shape="2498.40,1996.00 2498.40,1504.00"/>
    </edge>
    <edge id="14to13" from="14" to="13" priority="78">
        <lane id="14to13_0" index="0" speed="19.44" length="496.00" shape="3000.00,2001.60 2504.00,2001.60"/>
    </edge>
    <edge id="15to16" from="15" to="16" priority="78">
        <lane id="15to16_0" index="0" speed="19.44" length="492.80" shape="0.00,1498.40 492.80,1498.40"/>
    </edge>
    <edge id="16to17" from="16" to="17" priority="78">
        <lane id="16to17_0" index="0" speed="19.44" length="492.00" shape="504.00,1498.40 996.00,1498.40"/>
    </edge>
    <edge id="16to23" from="16" to="23" priority="78">
        <lane id="16to23_0" index="0" speed="19.44" length="485.60" shape="498.40,1492.80 498.40,1007.20"/>
    </edge>
    <edge id="17to10" from="17" to="10" priority="78">
        <lane id="17to10_0" index="0" speed="19.44" length="492.00" shape="1001.60,1504.00 1001.60,1996.00"/>
    </edge>
    <edge id="17to18" from="17" to="18" priority="78">
        <lane id="17to18_0" index="0" speed="19.44" length="485.60" shape="1007.20,1498.40 1492.80,1498.40"/>
    </edge>
    <edge id="18to19" from="18" to="19" priority="78">
        <lane id="18to19_0" index="0" speed="19.44" length="492.00" shape="1504.00,1498.40 1996.00,1498.40"/>
    </edge>
    <edge id="18to25" from="18" to="25" priority="78">
        <lane id="18to25_0" index="0" speed="19.44" length="485.60" shape="1498.40,1492.80 1498.40,1007.20"/>
    </edge>
    <edge id="19to12" from="19" to="12" priority="78">
        <lane id="19to12_0" index="0" speed="19.44" length="492.00" shape="2001.60,1504.00 2001.60,1996.00"/>
    </edge>
    <edge id="19to20" from="19" to="20" priority="78">
        <lane id="19to20_0" index="0" speed="19.44" length="485.60" shape="2007.20,1498.40 2492.80,1498.40"/>
    </edge>
    <edge id="1to2" from="1" to="2" priority="78">
        <lane id="1to2_0" index="0" speed="19.44" length="492.80" shape="0.00,2498.40 492.80,2498.40"/>
    </edge>
    <edge id="20to27" from="20" to="27" priority="78">
        <lane id="20to27_0" index="0" speed="19.44" length="485.60" shape="2498.40,1492.80 2498.40,1007.20"/>
    </edge>
    <edge id="23to30" from="23" to="30" priority="78">
        <lane id="23to30_0" index="0" speed="19.44" length="492.00" shape="498.40,996.00 498.40,504.00"/>
    </edge>
    <edge id="24to17" from="24" to="17" priority="78">
        <lane id="24to17_0" index="0" speed="19.44" length="485.60" shape="1001.60,1007.20 1001.60,1492.80"/>
    </edge>
    <edge id="24to23" from="24" to="23" priority="78">
        <lane id="24to23_0" index="0" speed="19.44" length="492.00" shape="996.00,1001.60 504.00,1001.60"/>
    </edge>
    <edge id="25to24" from="25" to="24" priority="78">
        <lane id="25to24_0" index="0" speed="19.44" length="485.60" shape="1492.80,1001.60 1007.20,1001.60"/>
    </edge>
    <edge id="25to32" from="25" to="32" priority="78">
        <lane id="25to32_0" index="0" speed="19.44" length="492.00" shape="1498.40,996.00 1498.40,504.00"/>
    </edge>
    <edge id="26to19" from="26" to="19" priority="78">
        <lane id="26to19_0" index="0" speed="19.44" length="485.60" shape="2001.60,1007.20 2001.60,1492.80"/>
    </edge>
    <edge id="26to25" from="26" to="25" priority="78">
        <lane id="26to25_0" index="0" speed="19.44" length="492.00" shape="1996.00,1001.60 1504.00,1001.60"/>
    </edge>
    <edge id="27to26" from="27" to="26" priority="78">
        <lane id="27to26_0" index="0" speed="19.44" length="485.60" shape="2492.80,1001.60 2007.20,1001.60"/>
    </edge>
    <edge id="27to34" from="27" to="34" priority="78">
        <lane id="27to34_0" index="0" speed="19.44" length="492.00" shape="2498.40,996.00 2498.40,504.00"/>
    </edge>
    <edge id="28to27" from="28" to="27" priority="78">
        <lane id="28to27_0" index="0" speed="19.44" length="496.00" shape="3000.00,1001.60 2504.00,1001.60"/>
    </edge>
    <edge id="29to30" from="29" to="30" priority="78">
        <lane id="29to30_0" index="0" speed="19.44" length="492.80" shape="0.00,498.40 492.80,498.40"/>
    </edge>
    <edge id="2to3" from="2" to="3" priority="78">
        <lane id="2to3_0" index="0" speed="19.44" length="492.00" shape="504.00,2498.40 996.00,2498.40"/>
    </edge>
    <edge id="2to9" from="2" to="9" priority="78">
        <lane id="2to9_0" index="0" speed="19.44" length="485.60" shape="498.40,2492.80 498.40,2007.20"/>
    </edge>
    <edge id="30to31" from="30" to="31" priority="78">
        <lane id="30to31_0" index="0" speed="19.44" length="492.00" shape="504.00,498.40 996.00,498.40"/>
    </edge>
    <edge id="31to24" from="31" to="24" priority="78">
        <lane id="31to24_0" index="0" speed="19.44" length="492.00" shape="1001.60,504.00 1001.60,996.00"/>
    </edge>
    <edge id="31to32" from="31" to="32" priority="78">
        <lane id="31to32_0" index="0" speed="19.44" length="485.60" shape="1007.20,498.40 1492.80,498.40"/>
    </edge>
    <edge id="32to33" from="32" to="33" priority="78">
        <lane id="32to33_0" index="0" speed="19.44" length="492.00" shape="1504.00,498.40 1996.00,498.40"/>
    </edge>
    <edge id="33to26" from="33" to="26" priority="78">
        <lane id="33to26_0" index="0" speed="19.44" length="492.00" shape="2001.60,504.00 2001.60,996.00"/>
    </edge>
    <edge id="33to34" from="33" to="34" priority="78">
        <lane id="33to34_0" index="0" speed="19.44" length="485.60" shape="2007.20,498.40 2492.80,498.40"/>
    </edge>
    <edge id="36to2" from="36" to="2" priority="78">
        <lane id="36to2_0" index="0" speed="19.44" length="496.00" shape="498.40,3000.00 498.40,2504.00"/>
    </edge>
    <edge id="39to31" from="39" to="31" priority="78">
        <lane id="39to31_0" index="0" speed="19.44" length="492.80" shape="1001.60,0.00 1001.60,492.80"/>
    </edge>
    <edge id="3to4" from="3" to="4" priority="78">
        <lane id="3to4_0" index="0" speed="19.44" length="485.60" shape="1007.20,2498.40 1492.80,2498.40"/>
    </edge>
    <edge id="40to4" from="40" to="4" priority="78">
        <lane id="40to4_0" index="0" speed="19.44" length="496.00" shape="1498.40,3000.00 1498.40,2504.00"/>
    </edge>
    <edge id="43to33" from="43" to="33" priority="78">
        <lane id="43to33_0" index="0" speed="19.44" length="492.80" shape="2001.60,0.00 2001.60,492.80"/>
    </edge>
    <edge id="44to6" from="44" to="6" priority="78">
        <lane id="44to6_0" index="0" speed="19.44" length="496.00" shape="2498.40,3000.00 2498.40,2504.00"/>
    </edge>
    <edge id="4to11" from="4" to="11" priority="78">
        <lane id="4to11_0" index="0" speed="19.44" length="485.60" shape="1498.40,2492.80 1498.40,2007.20"/>
    </edge>
    <edge id="4to5" from="4" to="5" priority="78">
        <lane id="4to5_0" index="0" speed="19.44" length="492.00" shape="1504.00,2498.40 1996.00,2498.40"/>
    </edge>
    <edge id="5to6" from="5" to="6" priority="78">
        <lane id="5to6_0" index="0" speed="19.44" length="485.60" shape="2007.20,2498.40 2492.80,2498.40"/>
    </edge>
    <edge id="6to13" from="6" to="13" priority="78">
        <lane id="6to13_0" index="0" speed="19.44" length="485.60" shape="2498.40,2492.80 2498.40,2007.20"/>
    </edge>
    <edge id="9to16" from="9" to="16" priority="78">
        <lane id="9to16_0" index="0" speed="19.44" length="492.00" shape="498.40,1996.00 498.40,1504.00"/>
    </edge>
    <edge id="outl1" from="9" to="8" priority="78">
        <lane id="outl1_0" index="0" speed="19.44" length="492.80" shape="492.80,2001.60 0.00,2001.60"/>
    </edge>
    <edge id="outl2" from="23" to="22" priority="78">
        <lane id="outl2_0" index="0" speed="19.44" length="492.80" shape="492.80,1001.60 0.00,1001.60"/>
    </edge>
    <edge id="outn1" from="3" to="38" priority="78">
        <lane id="outn1_0" index="0" speed="19.44" length="496.00" shape="1001.60,2504.00 1001.60,3000.00"/>
    </edge>
    <edge id="outn2" from="5" to="42" priority="78">
        <lane id="outn2_0" index="0" speed="19.44" length="496.00" shape="2001.60,2504.00 2001.60,3000.00"/>
    </edge>
    <edge id="outr1" from="6" to="7" priority="78">
        <lane id="outr1_0" index="0" speed="19.44" length="496.00" shape="2504.00,2498.40 3000.00,2498.40"/>
    </edge>
    <edge id="outr2" from="20" to="21" priority="78">
        <lane id="outr2_0" index="0" speed="19.44" length="496.00" shape="2504.00,1498.40 3000.00,1498.40"/>
    </edge>
    <edge id="outr3" from="34" to="35" priority="78">
        <lane id="outr3_0" index="0" speed="19.44" length="496.00" shape="2504.00,498.40 3000.00,498.40"/>
    </edge>
    <edge id="outs1" from="30" to="37" priority="78">
        <lane id="outs1_0" index="0" speed="19.44" length="492.80" shape="498.40,492.80 498.40,0.00"/>
    </edge>
    <edge id="outs2" from="32" to="41" priority="78">