<routes>
      <vType id="Car" length="5.00" minGap="2.50" maxSpeed="16.67" guiShape="passenger" carFollowModel="IDM" accel="0.8" decel="4.5" tau="1.0"/>
            
    <route id="right1"  edges="1to2 2to3 3to4 4to5 5to6 6to7 7to8 8to9 9to10 10to11 outr1" />
    <route id="right2"  edges="25to26 26to27 27to28 28to29 29to30 30to31 31to32 32to33 33to34 34to35 outr2" />
    <route id="right3"  edges="49to50 50to51 51to52 52to53 53to54 54to55 55to56 56to57 57to58 58to59 outr3" />
    <route id="right4"  edges="73to74 74to75 75to76 76to77 77to78 78to79 79to80 80to81 81to82 82to83 outr4" />
    <route id="right5"  edges="97to98 98to99 99to100 100to101 101to102 102to103 103to104 104to105 105to106 106to107 outr5" />
    <route id="left1"  edges="24to23 23to22 22to21 21to20 20to19 19to18 18to17 17to16 16to15 15to14 outl1" />
    <route id="left2"  edges="48to47 47to46 46to45 45to44 44to43 43to42 42to41 41to40 40to39 39to38 outl2" />
    <route id="left3"  edges="72to71 71to70 70to69 69to68 68to67 67to66 66to65 65to64 64to63 63to62 outl3" />
    <route id="left4"  edges="96to95 95to94 94to93 93to92 92to91 91to90 90to89 89to88 88to87 87to86 outl4" />
    <route id="left5"  edges="120to119 119to118 118to117 117to116 116to115 115to114 114to113 113to112 112to111 111to110 outl5" />
    <route id="down1"  edges="121to2 2to14 14to26 26to38 38to50 50to62 62to74 74to86 86to98 98to110 outs1" />
    <route id="down2"  edges="125to4 4to16 16to28 28to40 40to52 52to64 64to76 76to88 88to100 100to112 outs2" />
    <route id="down3"  edges="129to6 6to18 18to30 30to42 42to54 54to66 66to78 78to90 90to102 102to114 outs3" />
    <route id="down4"  edges="133to8 8to20 20to32 32to44 44to56 56to68 68to80 80to92 92to104 104to116 outs4" />
    <route id="down5"  edges="137to10 10to22 22to34 34to46 46to58 58to70 70to82 82to94 94to106 106to118 outs5" />
    <route id="up1"  edges="124to111 111to99 99to87 87to75 75to63 63to51 51to39 39to27 27to15 15to3 outn1" />
    <route id="up2"  edges="128to113 113to101 101to89 89to77 77to65 65to53 53to41 41to29 29to17 17to5 outn2" />
    <route id="up3"  edges="132to115 115to103 103to91 91to79 79to67 67to55 55to43 43to31 31to19 19to7 outn3" />
    <route id="up4"  edges="136to117 117to105 105to93 93to81 81to69 69to57 57to45 45to33 33to21 21to9 outn4" />
    <route id="up5"  edges="140to119 119to107 107to95 95to83 83to71 71to59 59to47 47to35 35to23 23to11 outn5" />
    <vehicle id="right3_0" type="Car" color="yellow" route="right3" departSpeed="desired" depart="0" />
    <vehicle id="down1_1" type="Car" color="yellow" route="down1" departSpeed="desired" depart="0" />
    <vehicle id="up3_2" type="Car" color="yellow" route="up3" departSpeed="desired" depart="0" />
    <vehicle id="left5_3" type="Car" color="yellow" route="left5" departSpeed="desired" depart="0" />
    <vehicle id="right4_4" type="Car" color="yellow" route="right4" departSpeed="desired" depart="2" />
    <vehicle id="right5_5" type="Car" color="yellow" route="right5" departSpeed="desired" depart="2" />
    <vehicle id="down3_6" type="Car" color="yellow" route="down3" departSpeed="desired" depart="2" />
    <vehicle id="up1_7" type="Car" color="yellow" route="up1" departSpeed="desired" depart="2" />
    <vehicle id="up4_8" type="Car" color="yellow" route="up4" departSpeed="desired" depart="2" />
    <vehicle id="down4_9" type="Car" color="yellow" route="down4" departSpeed="desired" depart="3" />
    <vehicle id="up1_10" type="Car" color="yellow" route="up1" departSpeed="desired" depart="3" />
    <vehicle id="down1_11" type="Car" color="yellow" route="down1" departSpeed="desired" depart="4" />
    <vehicle id="down4_12" type="Car" color="yellow" route="down4" departSpeed="desired" depart="4" />
    <vehicle id="left1_13" type="Car" color="yellow" route="left1" departSpeed="desired" depart="4" />
    <vehicle id="left5_14" type="Car" color="yellow" route="left5" departSpeed="desired" depart="5" />
    <vehicle id="right2_15" type="Car" color="yellow" route="right2" departSpeed="desired" depart="6" />
    <vehicle id="right3_16" type="Car" color="yellow" route="right3" departSpeed="desired" depart="6" />
    <vehicle id="right5_17" type="Car" color="yellow" route="right5" departSpeed="desired" depart="6" />
    <vehicle id="down2_18" type="Car" color="yellow" route="down2" departSpeed="desired" depart="7" />
    <vehicle id="left1_19" type="Car" color="yellow" route="left1" departSpeed="desired" depart="7" />
    <vehicle id="right5_20" type="Car" color="yellow" route="right5" departSpeed="desired" depart="8" />
    <vehicle id="right4_21" type="Car" color="yellow" route="right4" departSpeed="desired" depart="9" />
    <vehicle id="down2_22" type="Car" color="yellow" route="down2" departSpeed="desired" depart="9" />
    <vehicle id="down1_23" type="Car" color="yellow" route="down1" departSpeed="desired" depart="10" />
    <vehicle id="up2_24" type="Car" color="yellow" route="up2" departSpeed="desired" depart="10" />
    <vehicle id="left2_25" type="Car" color="yellow" route="left2" departSpeed="desired" depart="10" />
    <vehicle id="up3_26" type="Car" color="yellow" route="up3" departSpeed="desired" depart="12" />
    <vehicle id="right2_27" type="Car" color="yellow" route="right2" departSpeed="desired" depart="13" />
    <vehicle id="right3_28" type="Car" color="yellow" route="right3" departSpeed="desired" depart="13" />
    <vehicle id="left2_29" type="Car" color="yellow" route="left2" departSpeed="desired" depart="14" />
    <vehicle id="right4_30" type="Car" color="yellow" route="right4" departSpeed="desired" depart="15" />
    <vehicle id="up4_31" type="Car" color="yellow" route="up4" departSpeed="desired" depart="15" />
    <vehicle id="left3_32" type="Car" color="yellow" route="left3" departSpeed="desired" depart="15" />
    <vehicle id="left5_33" type="Car" color="yellow" route="left5" departSpeed="desired" depart="16" />
    <vehicle id="left4_34" type="Car" color="yellow" route="left4" departSpeed="desired" depart="17" />
    <vehicle id="up5_35" type="Car" color="yellow" route="up5" departSpeed="desired" depart="18" />
    <vehicle id="up1_36" type="Car" color="yellow" route="up1" departSpeed="desired" depart="19" />
    <vehicle id="left1_37" type="Car" color="yellow" route="left1" departSpeed="desired" depart="20" />
    <vehicle id="right1_38" type="Car" color="yellow" route="right1" departSpeed="desired" depart="21" />
    <vehicle id="up5_39" type="Car" color="yellow" route="up5" departSpeed="desired" depart="21" />
    <vehicle id="left1_40" type="Car" color="yellow" route="left1" departSpeed="desired" depart="21" />
    <vehicle id="left2_41" type="Car" color="yellow" route="left2" departSpeed="desired" depart="21" />
    <vehicle id="down1_42" type="Car" color="yellow" route="down1" departSpeed="desired" depart="22" />
    <vehicle id="up2_43" type="Car" color="yellow" route="up2" departSpeed="desired" depart="22" />
    <vehicle id="up3_44" type="Car" color="yellow" route="up3" departSpeed="desired" depart="22" />
    <vehicle id="down4_45" type="Car" color="yellow" route="down4" departSpeed="desired" depart="23" />
    <vehicle id="up4_46" type="Car" color="yellow" route="up4" departSpeed="desired" depart="23" />
    <vehicle id="right5_47" type="Car" color="yellow" route="right5" departSpeed="desired" depart="24" />
    <vehicle id="down2_48" type="Car" color="yellow" route="down2" departSpeed="desired" depart="24" />
    <vehicle id="right1_49" type="Car" color="yellow" route="right1" departSpeed="desired" depart="25" />
    <vehicle id="down1_50" type="Car" color="yellow" route="down1" departSpeed="desired" depart="25" />
    <vehicle id="right1_51" type="Car" color="yellow" route="right1" departSpeed="desired" depart="26" />
    <vehicle id="up4_52" type="Car" color="yellow" route="up4" departSpeed="desired" depart="26" />
    <vehicle id="down1_53" type="Car" color="yellow" route="down1" departSpeed="desired" depart="27" />
    <vehicle id="down2_54" type="Car" color="yellow" route="down2" departSpeed="desired" depart="27" />
    <vehicle id="up2_55" type="Car" color="yellow" route="up2" departSpeed="desired" depart="27" />
    <vehicle id="left5_56" type="Car" color="yellow" route="left5" departSpeed="desired" depart="27" />
    <vehicle id="down2_57" type="Car" color="yellow" route="down2" departSpeed="desired" depart="28" />
    <vehicle id="down3_58" type="Car" color="yellow" route="down3" departSpeed="desired" depart="28" />
    <vehicle id="up1_59" type="Car" color="yellow" route="up1" departSpeed="desired" depart="28" />
    <vehicle id="left4_60" type="Car" color="yellow" route="left4" departSpeed="desired" depart="28" />
    <vehicle id="up4_61" type="Car" color="yellow" route="up4" departSpeed="desired" depart="29" />
    <vehicle id="right1_62" type="Car" color="yellow" route="right1" departSpeed="desired" depart="31" />
    <vehicle id="down4_63" type="Car" color="yellow" route="down4" departSpeed="desired" depart="31" />
    <vehicle id="right3_64" type="Car" color="yellow" route="right3" departSpeed="desired" depart="32" />
    <vehicle id="down5_65" type="Car" color="yellow" route="down5" departSpeed="desired" depart="32" />
    <vehicle id="up5_66" type="Car" color="yellow" route="up5" departSpeed="desired" depart="32" />
    <vehicle id="left4_67" type="Car" color="yellow" route="left4" departSpeed="desired" depart="33" />
    <vehicle id="up2_68" type="Car" color="yellow" route="up2" departSpeed="desired" depart="34" />
    <vehicle id="right4_69" type="Car" color="yellow" route="right4" departSpeed="desired" depart="35" />
    <vehicle id="right5_70" type="Car" color="yellow" route="right5" departSpeed="desired" depart="35" />
    <vehicle id="left5_71" type="Car" color="yellow" route="left5" departSpeed="desired" depart="35" />
    <vehicle id="down3_72" type="Car" color="yellow" route="down3" departSpeed="desired" depart="37" />
    <vehicle id="up1_73" type="Car" color="yellow" route="up1" departSpeed="desired" depart="37" />
    <vehicle id="up3_74" type="Car" color="yellow" route="up3" departSpeed="desired" depart="37" />
    <vehicle id="left2_75" type="Car" color="yellow" route="left2" departSpeed="desired" depart="37" />
    <vehicle id="left3_76" type="Car" color="yellow" route="left3" departSpeed="desired" depart="37" />
    <vehicle id="left1_77" type="Car" color="yellow" route="left1" departSpeed="desired" depart="38" />
    <vehicle id="left3_78" type="Car" color="yellow" route="left3" departSpeed="desired" depart="39" />
    <vehicle id="down5_79" type="Car" color="yellow" route="down5" departSpeed="desired" depart="40" />
    <vehicle id="left1_80" type="Car" color="yellow" route="left1" departSpeed="desired" depart="40" />
    <vehicle id="left3_81" type="Car" color="yellow" route="left3" departSpeed="desired" depart="40" />
    <vehicle id="left1_82" type="Car" color="yellow" route="left1" departSpeed="desired" depart="42" />
    <vehicle id="left2_83" type="Car" color="yellow" route="left2" departSpeed="desired" depart="42" />
    <vehicle id="right4_84" type="Car" color="yellow" route="right4" departSpeed="desired" depart="43" />
    <vehicle id="right3_85" type="Car" color="yellow" route="right3" departSpeed="desired" depart="44" />
    <vehicle id="left2_86" type="Car" color="yellow" route="left2" departSpeed="desired" depart="44" />
    <vehicle id="right5_87" type="Car" color="yellow" route="right5" departSpeed="desired" depart="45" />
    <vehicle id="right5_88" type="Car" color="yellow" route="right5" departSpeed="desired" depart="46" />
    <vehicle id="down3_89" type="Car" color="yellow" route="down3" departSpeed="desired" depart="46" />
    <vehicle id="left2_90" type="Car" color="yellow" route="left2" departSpeed="desired" depart="46" />
    <vehicle id="left4_91" type="Car" color="yellow" route="left4" departSpeed="desired" depart="46" />
    <vehicle id="right3_92" type="Car" color="yellow" route="right3" departSpeed="desired" depart="47" />
    <vehicle id="left2_93" type="Car" color="yellow" route="left2" departSpeed="desired" depart="47" />
    <vehicle id="down4_94" type="Car" color="yellow" route="down4" departSpeed="desired" depart="48" />
    <vehicle id="down5_95" type="Car" color="yellow" route="down5" departSpeed="desired" depart="48" />
    <vehicle id="left1_96" type="Car" color="yellow" route="left1" departSpeed="desired" depart="48" />
    <vehicle id="left3_97" type="Car" color="yellow" route="left3" departSpeed="desired" depart="48" />
    <vehicle id="up2_98" type="Car" color="yellow" route="up2" departSpeed="desired" depart="50" />
    <vehicle id="down3_99" type="Car" color="yellow" route="down3" departSpeed="desired" depart="51" />
    <vehicle id="left1_100" type="Car" color="yellow" route="left1" departSpeed="desired" depart="51" />
    <vehicle id="right1_101" type="Car" color="yellow" route="right1" departSpeed="desired" depart="52" />
    <vehicle id="up5_102" type="Car" color="yellow" route="up5" departSpeed="desired" depart="54" />
    <vehicle id="right3_103" type="Car" color="yellow" route="right3" departSpeed="desired" depart="56" />
    <vehicle id="up1_104" type="Car" color="yellow" route="up1" departSpeed="desired" depart="56" />
    <vehicle id="up5_105" type="Car" color="yellow" route="up5" departSpeed="desired" depart="56" />
    <vehicle id="down5_106" type="Car" color="yellow" route="down5" departSpeed="desired" depart="57" />
    <vehicle id="down3_107" type="Car" color="yellow" route="down3" departSpeed="desired" depart="58" />
    <vehicle id="down1_108" type="Car" color="yellow" route="down1" departSpeed="desired" depart="59" />
    <vehicle id="up4_109" type="Car" color="yellow" route="up4" departSpeed="desired" depart="59" />
    <vehicle id="left2_110" type="Car" color="yellow" route="left2" departSpeed="desired" depart="59" />
    <vehicle id="left4_111" type="Car" color="yellow" route="left4" departSpeed="desired" depart="59" />
    <vehicle id="down3_112" type="Car" color="yellow" route="down3" departSpeed="desired" depart="60" />
    <vehicle id="up3_113" type="Car" color="yellow" route="up3" departSpeed="desired" depart="60" />
    <vehicle id="left1_114" type="Car" color="yellow" route="left1" departSpeed="desired" depart="61" />
    <vehicle id="right1_115" type="Car" color="yellow" route="right1" departSpeed="desired" depart="62" />
    <vehicle id="up5_116" type="Car" color="yellow" route="up5" departSpeed="desired" depart="62" />
    <vehicle id="right2_117" type="Car" color="yellow" route="right2" departSpeed="desired" depart="63" />
    <vehicle id="left1_118" type="Car" color="yellow" route="left1" departSpeed="desired" depart="63" />
    <vehicle id="right2_119" type="Car" color="yellow" route="right2" departSpeed="desired" depart="64" />
    <vehicle id="right3_120" type="Car" color="yellow" route="right3" departSpeed="desired" depart="64" />
    <vehicle id="left5_121" type="Car" color="yellow" route="left5" departSpeed="desired" depart="65" />
    <vehicle id="right5_122" type="Car" color="yellow" route="right5" departSpeed="desired" depart="66" />
    <vehicle id="down3_123" type="Car" color="yellow" route="down3" departSpeed="desired" depart="66" />
    <vehicle id="down1_124" type="Car" color="yellow" route="down1" departSpeed="desired" depart="67" />
    <vehicle id="down2_125" type="Car" color="yellow" route="down2" departSpeed="desired" depart="67" />
    <vehicle id="left5_126" type="Car" color="yellow" route="left5" departSpeed="desired" depart="67" />
    <vehicle id="right4_127" type="Car" color="yellow" route="right4" departSpeed="desired" depart="68" />
    <vehicle id="right5_128" type="Car" color="yellow" route="right5" departSpeed="desired" depart="68" />
    <vehicle id="left1_129" type="Car" color="yellow" route="left1" departSpeed="desired" depart="68" />
    <vehicle id="right3_130" type="Car" color="yellow" route="right3" departSpeed="desired" depart="69" />
    <vehicle id="down3_131" type="Car" color="yellow" route="down3" departSpeed="desired" depart="69" />
    <vehicle id="up2_132" type="Car" color="yellow" route="up2" departSpeed="desired" depart="69" />
    <vehicle id="left1_133" type="Car" color="yellow" route="left1" departSpeed="desired" depart="69" />
    <vehicle id="left2_134" type="Car" color="yellow" route="left2" departSpeed="desired" depart="69" />
    <vehicle id="right2_135" type="Car" color="yellow" route="right2" departSpeed="desired" depart="70" />
    <vehicle id="right4_136" type="Car" color="yellow" route="right4" departSpeed="desired" depart="70" />
    <vehicle id="up4_137" type="Car" color="yellow" route="up4" departSpeed="desired" depart="71" />
    <vehicle id="left2_138" type="Car" color="yellow" route="left2" departSpeed="desired" depart="72" />
    <vehicle id="right2_139" type="Car" color="yellow" route="right2" departSpeed="desired" depart="73" />
    <vehicle id="down4_140" type="Car" color="yellow" route="down4" departSpeed="desired" depart="73" />
    <vehicle id="up4_141" type="Car" color="yellow" route="up4" departSpeed="desired" depart="73" />
    <vehicle id="up2_142" type="Car" color="yellow" route="up2" departSpeed="desired" depart="74" />
    <vehicle id="up4_143" type="Car" color="yellow" route="up4" departSpeed="desired" depart="74" />
    <vehicle id="down1_144" type="Car" color="yellow" route="down1" departSpeed="desired" depart="75" />
    <vehicle id="right3_145" type="Car" color="yellow" route="right3" departSpeed="desired" depart="76" />
    <vehicle id="left5_146" type="Car" color="yellow" route="left5" departSpeed="desired" depart="76" />
    <vehicle id="left2_147" type="Car" color="yellow" route="left2" departSpeed="desired" depart="77" />
    <vehicle id="left5_148" type="Car" color="yellow" route="left5" departSpeed="desired" depart="77" />
    <vehicle id="right2_149" type="Car" color="yellow" route="right2" departSpeed="desired" depart="78" />
    <vehicle id="down3_150" type="Car" color="yellow" route="down3" departSpeed="desired" depart="78" />
    <vehicle id="up5_151" type="Car" color="yellow" route="up5" departSpeed="desired" depart="78" />
    <vehicle id="right5_152" type="Car" color="yellow" route="right5" departSpeed="desired" depart="79" />
    <vehicle id="up1_153" type="Car" color="yellow" route="up1" departSpeed="desired" depart="79" />
    <vehicle id="left5_154" type="Car" color="yellow" route="left5" departSpeed="desired" depart="79" />
    <vehicle id="right4_155" type="Car" color="yellow" route="right4" departSpeed="desired" depart="80" />
    <vehicle id="right5_156" type="Car" color="yellow" route="right5" departSpeed="desired" depart="80" />
    <vehicle id="up1_157" type="Car" color="yellow" route="up1" departSpeed="desired" depart="80" />
    <vehicle id="up1_158" type="Car" color="yellow" route="up1" departSpeed="desired" depart="81" />
    <vehicle id="up4_159" type="Car" color="yellow" route="up4" departSpeed="desired" depart="81" />
    <vehicle id="left1_160" type="Car" color="yellow" route="left1" departSpeed="desired" depart="81" />
    <vehicle id="right1_161" type="Car" color="yellow" route="right1" departSpeed="desired" depart="82" />
    <vehicle id="right3_162" type="Car" color="yellow" route="right3" departSpeed="desired" depart="82" />
    <vehicle id="up2_163" type="Car" color="yellow" route="up2" departSpeed="desired" depart="82" />
    <vehicle id="up3_164" type="Car" color="yellow" route="up3" departSpeed="desired" depart="83" />
    <vehicle id="down4_165" type="Car" color="yellow" route="down4" departSpeed="desired" depart="84" />
    <vehicle id="left2_166" type="Car" color="yellow" route="left2" departSpeed="desired" depart="85" />
    <vehicle id="right5_167" type="Car" color="yellow" route="right5" departSpeed="desired" depart="86" />
    <vehicle id="down2_168" type="Car" color="yellow" route="down2" departSpeed="desired" depart="86" />
    <vehicle id="up4_169" type="Car" color="yellow" route="up4" departSpeed="desired" depart="86" />
    <vehicle id="right2_170" type="Car" color="yellow" route="right2" departSpeed="desired" depart="87" />
    <vehicle id="left3_171" type="Car" color="yellow" route="left3" departSpeed="desired" depart="87" />
    <vehicle id="right2_172" type="Car" color="yellow" route="right2" departSpeed="desired" depart="88" />
    <vehicle id="down4_173" type="Car" color="yellow" route="down4" departSpeed="desired" depart="88" />
    <vehicle id="up1_174" type="Car" color="yellow" route="up1" departSpeed="desired" depart="88" />
    <vehicle id="up2_175" type="Car" color="yellow" route="up2" departSpeed="desired" depart="88" />
    <vehicle id="up5_176" type="Car" color="yellow" route="up5" departSpeed="desired" depart="89" />
    <vehicle id="left2_177" type="Car" color="yellow" route="left2" departSpeed="desired" depart="89" />
    <vehicle id="down5_178" type="Car" color="yellow" route="down5" departSpeed="desired" depart="90" />
    <vehicle id="up2_179" type="Car" color="yellow" route="up2" departSpeed="desired" depart="90" />
    <vehicle id="down1_180" type="Car" color="yellow" route="down1" departSpeed="desired" depart="91" />
    <vehicle id="right4_181" type="Car" color="yellow" route="right4" departSpeed="desired" depart="92" />
    <vehicle id="right3_182" type="Car" color="yellow" route="right3" departSpeed="desired" depart="93" />
    <vehicle id="up4_183" type="Car" color="yellow" route="up4" departSpeed="desired" depart="93" />
    <vehicle id="up5_184" type="Car" color="yellow" route="up5" departSpeed="desired" depart="93" />
    <vehicle id="up5_185" type="Car" color="yellow" route="up5" departSpeed="desired" depart="94" />
    <vehicle id="left4_186" type="Car" color="yellow" route="left4" departSpeed="desired" depart="95" />
    <vehicle id="down4_187" type="Car" color="yellow" route="down4" departSpeed="desired" depart="97" />
    <vehicle id="down5_188" type="Car" color="yellow" route="down5" departSpeed="desired" depart="97" />
    <vehicle id="left3_189" type="Car" color="yellow" route="left3" departSpeed="desired" depart="97" />
    <vehicle id="up5_190" type="Car" color="yellow" route="up5" departSpeed="desired" depart="99" />
    <vehicle id="right2_191" type="Car" color="yellow" route="right2" departSpeed="desired" depart="100" />
    <vehicle id="right4_192" type="Car" color="yellow" route="right4" departSpeed="desired" depart="100" />
    <vehicle id="up1_193" type="Car" color="yellow" route="up1" departSpeed="desired" depart="100" />
    <vehicle id="left4_194" type="Car" color="yellow" route="left4" departSpeed="desired" depart="100" />
    <vehicle id="down4_195_flaw" type="Car" color="blue" route="down4" departSpeed="desired" depart="101" />
    <vehicle id="right3_196" type="Car" color="yellow" route="right3" departSpeed="desired" depart="101" />
    <vehicle id="left1_197" type="Car" color="yellow" route="left1" departSpeed="desired" depart="101" />
    <vehicle id="right3_198" type="Car" color="yellow" route="right3" departSpeed="desired" depart="102" />
    <vehicle id="right1_199" type="Car" color="yellow" route="right1" departSpeed="desired" depart="103" />
    <vehicle id="right2_200" type="Car" color="yellow" route="right2" departSpeed="desired" depart="103" />
    <vehicle id="down4_201" type="Car" color="yellow" route="down4" departSpeed="desired" depart="103" />
    <vehicle id="up5_202" type="Car" color="yellow" route="up5" departSpeed="desired" depart="103" />
    <vehicle id="left2_203" type="Car" color="yellow" route="left2" departSpeed="desired" depart="103" />
    <vehicle id="left4_204" type="Car" color="yellow" route="left4" departSpeed="desired" depart="103" />
    <vehicle id="right4_205" type="Car" color="yellow" route="right4" departSpeed="desired" depart="105" />
    <vehicle id="down3_206" type="Car" color="yellow" route="down3" departSpeed="desired" depart="105" />
    <vehicle id="up3_207" type="Car" color="yellow" route="up3" departSpeed="desired" depart="105" />
    <vehicle id="right1_208" type="Car" color="yellow" route="right1" departSpeed="desired" depart="107" />
    <vehicle id="up1_209" type="Car" color="yellow" route="up1" departSpeed="desired" depart="107" />
    <vehicle id="up4_210" type="Car" color="yellow" route="up4" departSpeed="desired" depart="107" />
    <vehicle id="left2_211" type="Car" color="yellow" route="left2" departSpeed="desired" depart="107" />
    <vehicle id="right1_212" type="Car" color="yellow" route="right1" departSpeed="desired" depart="108" />
    <vehicle id="right5_213" type="Car" color="yellow" route="right5" departSpeed="desired" depart="108" />
    <vehicle id="down3_214" type="Car" color="yellow" route="down3" departSpeed="desired" depart="108" />
    <vehicle id="up5_215" type="Car" color="yellow" route="up5" departSpeed="desired" depart="108" />
    <vehicle id="left2_216" type="Car" color="yellow" route="left2" departSpeed="desired" depart="108" />
    <vehicle id="left4_217" type="Car" color="yellow" route="left4" departSpeed="desired" depart="108" />
    <vehicle id="down2_218_flaw" type="Car" color="blue" route="down2" departSpeed="desired" depart="109" />
    <vehicle id="right1_219" type="Car" color="yellow" route="right1" departSpeed="desired" depart="109" />
    <vehicle id="down3_220" type="Car" color="yellow" route="down3" departSpeed="desired" depart="109" />
    <vehicle id="left4_221" type="Car" color="yellow" route="left4" departSpeed="desired" depart="109" />
    <vehicle id="right5_222" type="Car" color="yellow" route="right5" departSpeed="desired" depart="110" />
    <vehicle id="up5_223" type="Car" color="yellow" route="up5" departSpeed="desired" depart="110" />
    <vehicle id="right3_224" type="Car" color="yellow" route="right3" departSpeed="desired" depart="111" />
    <vehicle id="down3_225" type="Car" color="yellow" route="down3" departSpeed="desired" depart="112" />
    <vehicle id="up5_226" type="Car" color="yellow" route="up5" departSpeed="desired" depart="112" />
    <vehicle id="down1_227" type="Car" color="yellow" route="down1" departSpeed="desired" depart="113" />
    <vehicle id="down3_228" type="Car" color="yellow" route="down3" departSpeed="desired" depart="115" />
    <vehicle id="up5_229" type="Car" color="yellow" route="up5" departSpeed="desired" depart="115" />
    <vehicle id="left1_230" type="Car" color="yellow" route="left1" departSpeed="desired" depart="115" />
    <vehicle id="down1_231" type="Car" color="yellow" route="down1" departSpeed="desired" depart="116" />
    <vehicle id="right5_232" type="Car" color="yellow" route="right5" departSpeed="desired" depart="117" />
    <vehicle id="left2_233" type="Car" color="yellow" route="left2" departSpeed="desired" depart="117" />
    <vehicle id="down4_234" type="Car" color="yellow" route="down4" departSpeed="desired" depart="118" />
    <vehicle id="up3_235" type="Car" color="yellow" route="up3" departSpeed="desired" depart="118" />
    <vehicle id="left5_236" type="Car" color="yellow" route="left5" departSpeed="desired" depart="118" />
    <vehicle id="up5_237" type="Car" color="yellow" route="up5" departSpeed="desired" depart="119" />
    <vehicle id="left2_238" type="Car" color="yellow" route="left2" departSpeed="desired" depart="119" />
    <vehicle id="right1_239" type="Car" color="yellow" route="right1" departSpeed="desired" depart="121" />
    <vehicle id="right3_240" type="Car" color="yellow" route="right3" departSpeed="desired" depart="121" />
    <vehicle id="down1_241" type="Car" color="yellow" route="down1" departSpeed="desired" depart="121" />
    <vehicle id="left2_242" type="Car" color="yellow" route="left2" departSpeed="desired" depart="122" />
    <vehicle id="left3_243" type="Car" color="yellow" route="left3" departSpeed="desired" depart="122" />
    <vehicle id="down4_244" type="Car" color="yellow" route="down4" departSpeed="desired" depart="123" />
    <vehicle id="left2_245" type="Car" color="yellow" route="left2" departSpeed="desired" depart="123" />
    <vehicle id="left3_246" type="Car" color="yellow" route="left3" departSpeed="desired" depart="123" />
    <vehicle id="right4_247" type="Car" color="yellow" route="right4" departSpeed="desired" depart="124" />
    <vehicle id="left3_248" type="Car" color="yellow" route="left3" departSpeed="desired" depart="124" />
    <vehicle id="right4_249" type="Car" color="yellow" route="right4" departSpeed="desired" depart="125" />
    <vehicle id="down5_250" type="Car" color="yellow" route="down5" departSpeed="desired" depart="125" />
    <vehicle id="up1_251" type="Car" color="yellow" route="up1" departSpeed="desired" depart="126" />
    <vehicle id="down3_252" type="Car" color="yellow" route="down3" departSpeed="desired" depart="127" />
    <vehicle id="left2_253" type="Car" color="yellow" route="left2" departSpeed="desired" depart="127" />
    <vehicle id="up2_254" type="Car" color="yellow" route="up2" departSpeed="desired" depart="128" />
    <vehicle id="right2_255" type="Car" color="yellow" route="right2" departSpeed="desired" depart="129" />
    <vehicle id="right4_256" type="Car" color="yellow" route="right4" departSpeed="desired" depart="130" />
    <vehicle id="up5_257" type="Car" color="yellow" route="up5" departSpeed="desired" depart="130" />
    <vehicle id="down3_258" type="Car" color="yellow" route="down3" departSpeed="desired" depart="131" />
    <vehicle id="up5_259" type="Car" color="yellow" route="up5" departSpeed="desired" depart="131" />
    <vehicle id="up2_260" type="Car" color="yellow" route="up2" departSpeed="desired" depart="132" />
    <vehicle id="up2_261" type="Car" color="yellow" route="up2" departSpeed="desired" depart="133" />
    <vehicle id="up5_262" type="Car" color="yellow" route="up5" departSpeed="desired" depart="133" />
    <vehicle id="up3_263" type="Car" color="yellow" route="up3" departSpeed="desired" depart="134" />