<route id="right1"  edges="1to2 2to3 3to4 4to5 5to6 outr1" />
<route id="right2"  edges="15to16 16to17 17to18 18to19 19to20 outr2" />
<route id="right3"  edges="29to30 30to31 31to32 32to33 33to34 outr3" />
<route id="left1"  edges="14to13 13to12 12to11 11to10 10to9 outl1" />
<route id="left2"  edges="28to27 27to26 26to25 25to24 24to23 outl2" />
<route id="down1"  edges="36to2 2to9 9to16 16to23 23to30 outs1" />
<route id="down2"  edges="40to4 4to11 11to18 18to25 25to32 outs2" />
<route id="down3"  edges="44to6 6to13 13to20 20to27 27to34 outs3" />
<route id="up1"  edges="39to31 31to24 24to17 17to10 10to3 outn1" />
<route id="up2"  edges="43to33 33to26 26to19 19to12 12to5 outn2" />
<routes>
        <vType id="Car" length="5.00" minGap="2.50" maxSpeed="16.67" guiShape="passenger" carFollowModel="IDM" accel="0.8" decel="4.5" tau="1.0"/>

        <route id="right" edges="1to2 2to3 outr" />
        <route id="down" edges="9to2 2to6 outs" />
        <route id="up" edges="12to7 7to3 outn" />
        <route id="left" edges="8to7 7to6 outl" />
        
    <vehicle id="right_0" type="Car" color="yellow" route="right" departSpeed="desired" depart="0" />
    <vehicle id="down_1" type="Car" color="yellow" route="down" departSpeed="desired" depart="0" />
    <vehicle id="up_2" type="Car" color="yellow" route="up" departSpeed="desired" depart="0" />
    <vehicle id="left_3" type="Car" color="yellow" route="left" departSpeed="desired" depart="0" />
    <vehicle id="up_4_flaw" type="Car" color="blue" route="up" departSpeed="desired" depart="1" />
    <vehicle id="right_5" type="Car" color="yellow" route="right" departSpeed="desired" depart="1" />
    <vehicle id="down_6" type="Car" color="yellow" route="down" departSpeed="desired" depart="1" />
    <vehicle id="up_7" type="Car" color="yellow" route="up" departSpeed="desired" depart="1" />
    <vehicle id="left_8" type="Car" color="yellow" route="left" departSpeed="desired" depart="1" />
    <vehicle id="right_9" type="Car" color="yellow" route="right" departSpeed="desired" depart="2" />
    <vehicle id="down_10" type="Car" color="yellow" route="down" departSpeed="desired" depart="2" />
    <vehicle id="up_11" type="Car" color="yellow" route="up" departSpeed="desired" depart="2" />
    <vehicle id="left_12" type="Car" color="yellow" route="left" departSpeed="desired" depart="2" />
    <vehicle id="up_13_flaw" type="Car" color="blue" route="up" departSpeed="desired" depart="3" />
    <vehicle id="right_14" type="Car" color="yellow" route="right" departSpeed="desired" depart="3" />
    <vehicle id="down_15" type="Car" color="yellow" route="down" departSpeed="desired" depart="3" />
    <vehicle id="up_16" type="Car" color="yellow" route="up" departSpeed="desired" depart="3" />
    <vehicle id="left_17" type="Car" color="yellow" route="left" departSpeed="desired" depart="3" />
    <vehicle id="right_18_flaw" type="Car" color="blue" route="right" departSpeed="desired" depart="4" />
    <vehicle id="right_19" type="Car" color="yellow" route="right" departSpeed="desired" depart="4" />
    <vehicle id="down_20" type="Car" color="yellow" route="down" departSpeed="desired" depart="4" />
    <vehicle id="up_21" type="Car" color="yellow" route="up" departSpeed="desired" depart="4" />
    <vehicle id="left_22" type="Car" color="yellow" route="left" departSpeed="desired" depart="4" />
    <vehicle id="down_23_flaw" type="Car" color="blue" route="down" departSpeed="desired" depart="5" />
    <vehicle id="right_24" type="Car" color="yellow" route="right" departSpeed="desired" depart="5" />
    <vehicle id="down_25" type="Car" color="yellow" route="down" departSpeed="desired" depart="5" />
    <vehicle id="up_26" type="Car" color="yellow" route="up" departSpeed="desired" depart="5" />
    <vehicle id="left_27" type="Car" color="yellow" route="left" departSpeed="desired" depart="5" />
    <vehicle id="up_28_flaw" type="Car" color="blue" route="up" departSpeed="desired" depart="6" />
    <vehicle id="right_29" type="Car" color="yellow" route="right" departSpeed="desired" depart="6" />
    <vehicle id="down_30" type="Car" color="yellow" route="down" departSpeed="desired" depart="6" />
    <vehicle id="up_31" type="Car" color="yellow" route="up" departSpeed="desired" depart="6" />
    <vehicle id="left_32" type="Car" color="yellow" route="left" departSpeed="desired" depart="6" />
    <vehicle id="right_33" type="Car" color="yellow" route="right" departSpeed="desired" depart="7" />
    <vehicle id="down_34" type="Car" color="yellow" route="down" departSpeed="desired" depart="7" />
    <vehicle id="up_35" type="Car" color="yellow" route="up" departSpeed="desired" depart="7" />
    <vehicle id="left_36" type="Car" color="yellow" route="left" departSpeed="desired" depart="7" />
    <vehicle id="right_37" type="Car" color="yellow" route="right" departSpeed="desired" depart="8" />
    <vehicle id="down_38" type="Car" color="yellow" route="down" departSpeed="desired" depart="8" />
    <vehicle id="up_39" type="Car" color="yellow" route="up" departSpeed="desired" depart="8" />
    <vehicle id="left_40" type="Car" color="yellow" route="left" departSpeed="desired" depart="8" />
    <vehicle id="right_41" type="Car" color="yellow" route="right" departSpeed="desired" depart="9" />
    <vehicle id="down_42" type="Car" color="yellow" route="down" departSpeed="desired" depart="9" />
    <vehicle id="up_43" type="Car" color="yellow" route="up" departSpeed="desired" depart="9" />
    <vehicle id="left_44" type="Car" color="yellow" route="left" departSpeed="desired" depart="9" />
    <vehicle id="right_45" type="Car" color="yellow" route="right" departSpeed="desired" depart="10" />
    <vehicle id="down_46" type="Car" color="yellow" route="down" departSpeed="desired" depart="10" />
    <vehicle id="up_47" type="Car" color="yellow" route="up" departSpeed="desired" depart="10" />
    <vehicle id="left_48" type="Car" color="yellow" route="left" departSpeed="desired" depart="10" />
    <vehicle id="up_49_flaw" type="Car" color="blue" route="up" departSpeed="desired" depart="11" />
    <vehicle id="right_50" type="Car" color="yellow" route="right" departSpeed="desired" depart="11" />
    <vehicle id="down_51" type="Car" color="yellow" route="down" departSpeed="desired" depart="11" />
    <vehicle id="up_52" type="Car" color="yellow" route="up" departSpeed="desired" depart="11" />
    <vehicle id="left_53" type="Car" color="yellow" route="left" departSpeed="desired" depart="11" />
    <vehicle id="down_54_flaw" type="Car" color="blue" route="down" departSpeed="desired" depart="12" />
    <vehicle id="right_55" type="Car" color="yellow" route="right" departSpeed="desired" depart="12" />
    <vehicle id="down_56" type="Car" color="yellow" route="down" departSpeed="desired" depart="12" />
    <vehicle id="up_57" type="Car" color="yellow" route="up" departSpeed="desired" depart="12" />
    <vehicle id="left_58" type="Car" color="yellow" route="left" departSpeed="desired" depart="12" />
    <vehicle id="up_59_flaw" type="Car" color="blue" route="up" departSpeed="desired" depart="13" />
    <vehicle id="right_60" type="Car" color="yellow" route="right" departSpeed="desired" depart="13" />
    <vehicle id="down_61" type="Car" color="yellow" route="down" departSpeed="desired" depart="13" />
    <vehicle id="up_62" type="Car" color="yellow" route="up" departSpeed="desired" depart="13" />
    <vehicle id="left_63" type="Car" color="yellow" route="left" departSpeed="desired" depart="13" />
    <vehicle id="down_64_flaw" type="Car" color="blue" route="down" departSpeed="desired" depart="14" />
    <vehicle id="right_65" type="Car" color="yellow" route="right" departSpeed="desired" depart="14" />
    <vehicle id="down_66" type="Car" color="yellow" route="down" departSpeed="desired" depart="14" />
    <vehicle id="up_67" type="Car" color="yellow" route="up" departSpeed="desired" depart="14" />
    <vehicle id="left_68" type="Car" color="yellow" route="left" departSpeed="desired" depart="14" />
    <vehicle id="down_69_flaw" type="Car" color="blue" route="down" departSpeed="desired" depart="15" />
    <vehicle id="right_70" type="Car" color="yellow" route="right" departSpeed="desired" depart="15" />
    <vehicle id="down_71" type="Car" color="yellow" route="down" departSpeed="desired" depart="15" />
    <vehicle id="up_72" type="Car" color="yellow" route="up" departSpeed="desired" depart="15" />
    <vehicle id="left_73" type="Car" color="yellow" route="left" departSpeed="desired" depart="15" />
    <vehicle id="up_74_flaw" type="Car" color="blue" route="up" departSpeed="desired" depart="16" />
    <vehicle id="right_75" type="Car" color="yellow" route="right" departSpeed="desired" depart="16" />
    <vehicle id="down_76" type="Car" color="yellow" route="down" departSpeed="desired" depart="16" />
    <vehicle id="up_77" type="Car" color="yellow" route="up" departSpeed="desired" depart="16" />
    <vehicle id="left_78" type="Car" color="yellow" route="left" departSpeed="desired" depart="16" />
    <vehicle id="down_79_flaw" type="Car" color="blue" route="down" departSpeed="desired" depart="17" />
    <vehicle id="right_80" type="Car" color="yellow" route="right" departSpeed="desired" depart="17" />
    <vehicle id="down_81" type="Car" color="yellow" route="down" departSpeed="desired" depart="17" />
    <vehicle id="up_82" type="Car" color="yellow" route="up" departSpeed="desired" depart="17" />
    <vehicle id="left_83" type="Car" color="yellow" route="left" departSpeed="desired" depart="17" />
    <vehicle id="right_84_flaw" type="Car" color="blue" route="right" departSpeed="desired" depart="18" />
    <vehicle id="right_85" type="Car" color="yellow" route="right" departSpeed="desired" depart="18" />
    <vehicle id="down_86" type="Car" color="yellow" route="down" departSpeed="desired" depart="18" />
    <vehicle id="up_87" type="Car" color="yellow" route="up" departSpeed="desired" depart="18" />
    <vehicle id="left_88" type="Car" color="yellow" route="left" departSpeed="desired" depart="18" />
    <vehicle id="right_89" type="Car" color="yellow" route="right" departSpeed="desired" depart="19" />
    <vehicle id="down_90" type="Car" color="yellow" route="down" departSpeed="desired" depart="19" />
    <vehicle id="up_91" type="Car" color="yellow" route="up" departSpeed="desired" depart="19" />
    <vehicle id="left_92" type="Car" color="yellow" route="left" departSpeed="desired" depart="19" />
    <vehicle id="right_93" type="Car" color="yellow" route="right" departSpeed="desired" depart="20" />
    <vehicle id="down_94" type="Car" color="yellow" route="down" departSpeed="desired" depart="20" />
    <vehicle id="up_95" type="Car" color="yellow" route="up" departSpeed="desired" depart="20" />
    <vehicle id="left_96" type="Car" color="yellow" route="left" departSpeed="desired" depart="20" />
    <vehicle id="left_97_flaw" type="Car" color="blue" route="left" departSpeed="desired" depart="21" />
    <vehicle id="right_98" type="Car" color="yellow" route="right" departSpeed="desired" depart="21" />
    <vehicle id="down_99" type="Car" color="yellow" route="down" departSpeed="desired" depart="21" />
    <vehicle id="up_100" type="Car" color="yellow" route="up" departSpeed="desired" depart="21" />
    <vehicle id="left_101" type="Car" color="yellow" route="left" departSpeed="desired" depart="21" />
    <vehicle id="right_102" type="Car" color="yellow" route="right" departSpeed="desired" depart="22" />
    <vehicle id="down_103" type="Car" color="yellow" route="down" departSpeed="desired" depart="22" />
    <vehicle id="up_104" type="Car" color="yellow" route="up" departSpeed="desired" depart="22" />
    <vehicle id="left_105" type="Car" color="yellow" route="left" departSpeed="desired" depart="22" />
    <vehicle id="up_106_flaw" type="Car" color="blue" route="up" departSpeed="desired" depart="23" />
    <vehicle id="right_107" type="Car" color="yellow" route="right" departSpeed="desired" depart="23" />
    <vehicle id="down_108" type="Car" color="yellow" route="down" departSpeed="desired" depart="23" />
    <vehicle id="up_109" type="Car" color="yellow" route="up" departSpeed="desired" depart="23" />
    <vehicle id="left_110" type="Car" color="yellow" route="left" departSpeed="desired" depart="23" />
    <vehicle id="up_111_flaw" type="Car" color="blue" route="up" departSpeed="desired" depart="24" />
    <vehicle id="right_112" type="Car" color="yellow" route="right" departSpeed="desired" depart="24" />
    <vehicle id="down_113" type="Car" color="yellow" route="down" departSpeed="desired" depart="24" />
    <vehicle id="up_114" type="Car" color="yellow" route="up" departSpeed="desired" depart="24" />
    <vehicle id="left_115" type="Car" color="yellow" route="left" departSpeed="desired" depart="24" />
    <vehicle id="left_116_flaw" type="Car" color="blue" route="left" departSpeed="desired" depart="25" />
    <vehicle id="right_117" type="Car" color="yellow" route="right" departSpeed="desired" depart="25" />
    <vehicle id="down_118" type="Car" color="yellow" route="down" departSpeed="desired" depart="25" />
    <vehicle id="up_119" type="Car" color="yellow" route="up" departSpeed="desired" depart="25" />
    <vehicle id="left_120" type="Car" color="yellow" route="left" departSpeed="desired" depart="25" />
    <vehicle id="right_121_flaw" type="Car" color="blue" route="right" departSpeed="desired" depart="26" />
    <vehicle id="right_122" type="Car" color="yellow" route="right" departSpeed="desired" depart="26" />
    <vehicle id="down_123" type="Car" color="yellow" route="down" departSpeed="desired" depart="26" />
    <vehicle id="up_124" type="Car" color="yellow" route="up" departSpeed="desired" depart="26" />
    <vehicle id="left_125" type="Car" color="yellow" route="left" departSpeed="desired" depart="26" />
    <vehicle id="right_126_flaw" type="Car" color="blue" route="right" departSpeed="desired" depart="27" />
    <vehicle id="right_127" type="Car" color="yellow" route="right" departSpeed="desired" depart="27" />
    <vehicle id="down_128" type="Car" color="yellow" route="down" departSpeed="desired" depart="27" />
    <vehicle id="up_129" type="Car" color="yellow" route="up" departSpeed="desired" depart="27" />
    <vehicle id="left_130" type="Car" color="yellow" route="left" departSpeed="desired" depart="27" />
    <vehicle id="down_131_flaw" type="Car" color="blue" route="down" departSpeed="desired" depart="28" />
    <vehicle id="right_132" type="Car" color="yellow" route="right" departSpeed="desired" depart="28" />
    <vehicle id="down_133" type="Car" color="yellow" route="down" departSpeed="desired" depart="28" />
    <vehicle id="up_134" type="Car" color="yellow" route="up" departSpeed="desired" depart="28" />
    <vehicle id="left_135" type="Car" color="yellow" route="left" departSpeed="desired" depart="28" />
    <vehicle id="right_136" type="Car" color="yellow" route="right" departSpeed="desired" depart="29" />
    <vehicle id="down_137" type="Car" color="yellow" route="down" departSpeed="desired" depart="29" />
    <vehicle id="up_138" type="Car" color="yellow" route="up" departSpeed="desired" depart="29" />
    <vehicle id="left_139" type="Car" color="yellow" route="left" departSpeed="desired" depart="29" />
    <vehicle id="up_140_flaw" type="Car" color="blue" route="up" departSpeed="desired" depart="30" />
    <vehicle id="right_141" type="Car" color="yellow" route="right" departSpeed="desired" depart="30" />
    <vehicle id="down_142" type="Car" color="yellow" route="down" departSpeed="desired" depart="30" />
    <vehicle id="up_143" type="Car" color="yellow" route="up" departSpeed="desired" depart="30" />
    <vehicle id="left_144" type="Car" color="yellow" route="left" departSpeed="desired" depart="30" />
    <vehicle id="down_145_flaw" type="Car" color="blue" route="down" departSpeed="desired" depart="31" />
    <vehicle id="right_146" type="Car" color="yellow" route="right" departSpeed="desired" depart="31" />
    <vehicle id="down_147" type="Car" color="yellow" route="down" departSpeed="desired" depart="31" />
    <vehicle id="up_148" type="Car" color="yellow" route="up" departSpeed="desired" depart="31" />
    <vehicle id="left_149" type="Car" color="yellow" route="left" departSpeed="desired" depart="31" />
    <vehicle id="right_150" type="Car" color="yellow" route="right" departSpeed="desired" depart="32" />
    <vehicle id="down_151" type="Car" color="yellow" route="down" departSpeed="desired" depart="32" />
    <vehicle id="up_152" type="Car" color="yellow" route="up" departSpeed="desired" depart="32" />
    <vehicle id="left_153" type="Car" color="yellow" route="left" departSpeed="desired" depart="32" />
    <vehicle id="left_154_flaw" type="Car" color="blue" route="left" departSpeed="desired" depart="33" />
    <vehicle id="right_155" type="Car" color="yellow" route="right" departSpeed="desired" depart="33" />
    <vehicle id="down_156" type="Car" color="yellow" route="down" departSpeed="desired" depart="33" />
    <vehicle id="up_157" type="Car" color="yellow" route="up" departSpeed="desired" depart="33" />
    <vehicle id="left_158" type="Car" color="yellow" route="left" departSpeed="desired" depart="33" />
    <vehicle id="right_159_flaw" type="Car" color="blue" route="right" departSpeed="desired" depart="34" />
    <vehicle id="right_160" type="Car" color="yellow" route="right" departSpeed="desired" depart="34" />
    <vehicle id="down_161" type="Car" color="yellow" route="down" departSpeed="desired" depart="34" />
    <vehicle id="up_162" type="Car" color="yellow" route="up" departSpeed="desired" depart="34" />
    <vehicle id="left_163" type="Car" color="yellow" route="left" departSpeed="desired" depart="34" />
    <vehicle id="down_164_flaw" type="Car" color="blue" route="down" departSpeed="desired" depart="35" />
    <vehicle id="right_165" type="Car" color="yellow" route="right" departSpeed="desired" depart="35" />
    <vehicle id="down_166" type="Car" color="yellow" route="down" departSpeed="desired" depart="35" />
    <vehicle id="up_167" type="Car" color="yellow" route="up" departSpeed="desired" depart="35" />
    <vehicle id="left_168" type="Car" color="yellow" route="left" departSpeed="desired" depart="35" />
    <vehicle id="right_169" type="Car" color="yellow" route="right" departSpeed="desired" depart="36" />
    <vehicle id="down_170" type="Car" color="yellow" route="down" departSpeed="desired" depart="36" />
    <vehicle id="up_171" type="Car" color="yellow" route="up" departSpeed="desired" depart="36" />
    <vehicle id="left_172" type="Car" color="yellow" route="left" departSpeed="desired" depart="36" />
    <vehicle id="up_173_flaw" type="Car" color="blue" route="up" departSpeed="desired" depart="37" />
    <vehicle id="right_174" type="Car" color="yellow" route="right" departSpeed="desired" depart="37" />
    <vehicle id="down_175" type="Car" color="yellow" route="down" departSpeed="desired" depart="37" />
    <vehicle id="up_176" type="Car" color="yellow" route="up" departSpeed="desired" depart="37" />
    <vehicle id="left_177" type="Car" color="yellow" route="left" departSpeed="desired" depart="37" />
    <vehicle id="up_178_flaw" type="Car" color="blue" route="up" departSpeed="desired" depart="38" />
    <vehicle id="right_179" type="Car" color="yellow" route="right" departSpeed="desired" depart="38" />
    <vehicle id="down_180" type="Car" color="yellow" route="down" departSpeed="desired" depart="38" />
    <vehicle id="up_181" type="Car" color="yellow" route="up" departSpeed="desired" depart="38" />
    <vehicle id="left_182" type="Car" color="yellow" route="left" departSpeed="desired" depart="38" />
    <vehicle id="right_183" type="Car" color="yellow" route="right" departSpeed="desired" depart="39" />
    <vehicle id="down_184" type="Car" color="yellow" route="down" departSpeed="desired" depart="39" />
    <vehicle id="up_185" type="Car" color="yellow" route="up" departSpeed="desired" depart="39" />
    <vehicle id="left_186" type="Car" color="yellow" route="left" departSpeed="desired" depart="39" />
    <vehicle id="right_187" type="Car" color="yellow" route="right" departSpeed="desired" depart="40" />
    <vehicle id="down_188" type="Car" color="yellow" route="down" departSpeed="desired" depart="40" />
    <vehicle id="up_189" type="Car" color="yellow" route="up" departSpeed="desired" depart="40" />
    <vehicle id="left_190" type="Car" color="yellow" route="left" departSpeed="desired" depart="40" />
    <vehicle id="left_191_flaw" type="Car" color="blue" route="left" departSpeed="desired" depart="41" />
    <vehicle id="right_192" type="Car" color="yellow" route="right" departSpeed="desired" depart="41" />
    <vehicle id="down_193" type="Car" color="yellow" route="down" departSpeed="desired" depart="41" />
    <vehicle id="up_194" type="Car" color="yellow" route="up" departSpeed="desired" depart="41" />
    <vehicle id="left_195" type="Car" color="yellow" route="left" departSpeed="desired" depart="41" />
    <vehicle id="right_196" type="Car" color="yellow" route="right" departSpeed="desired" depart="42" />
    <vehicle id="down_197" type="Car" color="yellow" route="down" departSpeed="desired" depart="42" />
    <vehicle id="up_198" type="Car" color="yellow" route="up" departSpeed="desired" depart="42" />
    <vehicle id="left_199" type="Car" color="yellow" route="left" departSpeed="desired" depart="42" />
    <vehicle id="left_200_flaw" type="Car" color="blue" route="left" departSpeed="desired" depart="43" />
    <vehicle id="right_201" type="Car" color="yellow" route="right" departSpeed="desired" depart="43" />
    <vehicle id="down_202" type="Car" color="yellow" route="down" departSpeed="desired" depart="43" />
    <vehicle id="up_203" type="Car" color="yellow" route="up" departSpeed="desired" depart="43" />
    <vehicle id="left_204" type="Car" color="yellow" route="left" departSpeed="desired" depart="43" />
    <vehicle id="up_205_flaw" type="Car" color="blue" route="up" departSpeed="desired" depart="44" />
    <vehicle id="right_206" type="Car" color="yellow" route="right" departSpeed="desired" depart="44" />
    <vehicle id="down_207" type="Car" color="yellow" route="down" departSpeed="desired" depart="44" />
    <vehicle id="up_208" type="Car" color="yellow" route="up" departSpeed="desired" depart="44" />
    <vehicle id="left_209" type="Car" color="yellow" route="left" departSpeed="desired" depart="44" />
    <vehicle id="right_210" type="Car" color="yellow" route="right" departSpeed="desired" depart="45" />
    <vehicle id="down_211" type="Car" color="yellow" route="down" departSpeed="desired" depart="45" />
    <vehicle id="up_212" type="Car" color="yellow" route="up" departSpeed="desired" depart="45" />
    <vehicle id="left_213" type="Car" color="yellow" route="left" departSpeed="desired" depart="45" />
    <vehicle id="down_214_flaw" type="Car" color="blue" route="down" departSpeed="desired" depart="46" />
    <vehicle id="right_215" type="Car" color="yellow" route="right" departSpeed="desired" depart="46" />
    <vehicle id="down_216" type="Car" color="yellow" route="down" departSpeed="desired" depart="46" />
    <vehicle id="up_217" type="Car" color="yellow" route="up" departSpeed="desired" depart="46" />
    <vehicle id="left_218" type="Car" color="yellow" route="left" departSpeed="desired" depart="46" />
    <vehicle id="left_219_flaw" type="Car" color="blue" route="left" departSpeed="desired" depart="47" />
    <vehicle id="right_220" type="Car" color="yellow" route="right" departSpeed="desired" depart="47" />
    <vehicle id="down_221" type="Car" color="yellow" route="down" departSpeed="desired" depart="47" />
    <vehicle id="up_222" type="Car" color="yellow" route="up" departSpeed="desired" depart="47" />
    <vehicle id="left_223" type="Car" color="yellow" route="left" departSpeed="desired" depart="47" />
    <vehicle id="right_224" type="Car" color="yellow" route="right" departSpeed="desired" depart="48" />
    <vehicle id="down_225" type="Car" color="yellow" route="down" departSpeed="desired" depart="48" />
    <vehicle id="up_226" type="Car" color="yellow" route="up" departSpeed="desired" depart="48" />
    <vehicle id="left_227" type="Car" color="yellow" route="left" departSpeed="desired" depart="48" />
    <vehicle id="left_228_flaw" type="Car" color="blue" route="left" departSpeed="desired" depart="49" />
    <vehicle id="right_229" type="Car" color="yellow" route="right" departSpeed="desired" depart="49" />
    <vehicle id="down_230" type="Car" color="yellow" route="down" departSpeed="desired" depart="49" />
    <vehicle id="up_231" type="Car" color="yellow" route="up" departSpeed="desired" depart="49" />
    <vehicle id="left_232" type="Car" color="yellow" route="left" departSpeed="desired" depart="49" />
    <vehicle id="down_233_flaw" type="Car" color="blue" route="down" departSpeed="desired" depart="50" />
    <vehicle id="right_234" type="Car" color="yellow" route="right" departSpeed="desired" depart="50" />
    <vehicle id="down_235" type="Car" color="yellow" route="down" departSpeed="desired" depart="50" />
    <vehicle id="up_236" type="Car" color="yellow" route="up" departSpeed="desired" depart="50" />
    <vehicle id="left_237" type="Car" color="yellow" route="left" departSpeed="desired" depart="50" />
    <vehicle id="right_238" type="Car" color="yellow" route="right" departSpeed="desired" depart="51" />
    <vehicle id="down_239" type="Car" color="yellow" route="down" departSpeed="desired" depart="51" />
    <vehicle id="up_240" type="Car" color="yellow" route="up" departSpeed="desired" depart="51" />
    <vehicle id="left_241" type="Car" color="yellow" route="left" departSpeed="desired" depart="51" />
    <vehicle id="left_242_flaw" type="Car" color="blue" route="left" departSpeed="desired" depart="52" />
    <vehicle id="right_243" type="Car" color="yellow" route="right" departSpeed="desired" depart="52" />
    <vehicle id="down_244" type="Car" color="yellow" route="down" departSpeed="desired" depart="52" />
    <vehicle id="up_245" type="Car" color="yellow" route="up" departSpeed="desired" depart="52" />
    <vehicle id="left_246" type="Car" color="yellow" route="left" departSpeed="desired" depart="52" />
    <vehicle id="right_247_flaw" type="Car" color="blue" route="right" departSpeed="desired" depart="53" />
    <vehicle id="right_248" type="Car" color="yellow" route="right" departSpeed="desired" depart="53" />
    <vehicle id="down_249" type="Car" color="yellow" route="down" departSpeed="desired" depart="53" />
    <vehicle id="up_250" type="Car" color="yellow" route="up" departSpeed="desired" depart="53" />
    <vehicle id="left_251" type="Car" color="yellow" route="left" departSpeed="desired" depart="53" />
    <vehicle id="up_252_flaw" type="Car" color="blue" route="up" departSpeed="desired" depart="54" />
    <vehicle id="right_253" type="Car" color="yellow" route="right" departSpeed="desired" depart="54" />
    <vehicle id="down_254" type="Car" color="yellow" route="down" departSpeed="desired" depart="54" />
    <vehicle id="up_255" type="Car" color="yellow" route="up" departSpeed="desired" depart="54" />
    <vehicle id="left_256" type="Car" color="yellow" route="left" departSpeed="desired" depart="54" />
    <vehicle id="down_257_flaw" type="Car" color="blue" route="down" departSpeed="desired" depart="55" />
    <vehicle id="right_258" type="Car" color="yellow" route="right" departSpeed="desired" depart="55" />
    <vehicle id="down_259" type="Car" color="yellow" route="down" departSpeed="desired" depart="55" />
    <vehicle id="up_260" type="Car" color="yellow" route="up" departSpeed="desired" depart="55" />
    <vehicle id="left_261" type="Car" color="yellow" route="left" departSpeed="desired" depart="55" />
    <vehicle id="left_262_flaw" type="Car" color="blue" route="left" departSpeed="desired" depart="56" />
    <vehicle id="right_263" type="Car" color="yellow" route="right" departSpeed="desired" depart="56" />
    <vehicle id="down_264" type="Car" color="yellow" route="down" departSpeed="desired" depart="56" />
    <vehicle id="up_265" type="Car" color="yellow" route="up" departSpeed="desired" depart="56" />
    <vehicle id="left_266" type="Car" color="yellow" route="left" departSpeed="desired" depart="56" />
    <vehicle id="right_267_flaw" type="Car" color="blue" route="right" departSpeed="desired" depart="57" />
    <vehicle id="right_268" type="Car" color="yellow" route="right" departSpeed="desired" depart="57" />
    <vehicle id="down_269" type="Car" color="yellow" route="down" departSpeed="desired" depart="57" />
    <vehicle id="up_270" type="Car" color="yellow" route="up" departSpeed="desired" depart="57" />
    <vehicle id="left_271" type="Car" color="yellow" route="left" departSpeed="desired" depart="57" />
    <vehicle id="left_272_flaw" type="Car" color="blue" route="left" departSpeed="desired" depart="58" />
    <vehicle id="right_273" type="Car" color="yellow" route="right" departSpeed="desired" depart="58" />
    <vehicle id="down_274" type="Car" color="yellow" route="down" departSpeed="desired" depart="58" />
    <vehicle id="up_275" type="Car" color="yellow" route="up" departSpeed="desired" depart="58" />
    <vehicle id="left_276" type="Car" color="yellow" route="left" departSpeed="desired" depart="58" />
    <vehicle id="up_277_flaw" type="Car" color="blue" route="up" departSpeed="desired" depart="59" />
    <vehicle id="right_278" type="Car" color="yellow" route="right" departSpeed="desired" depart="59" />
    <vehicle id="down_279" type="Car" color="yellow" route="down" departSpeed="desired" depart="59" />
    <vehicle id="up_280" type="Car" color="yellow" route="up" departSpeed="desired" depart="59" />
    <vehicle id="left_281" type="Car" color="yellow" route="left" departSpeed="desired" depart="59" />