<routes>
      <vType id="Car" length="5.00" minGap="2.50" maxSpeed="16.67" guiShape="passenger" carFollowModel="IDM" accel="0.8" decel="4.5" tau="1.0"/>
            
    <route id="right1"  edges="1to2 2to3 3to4 4to5 5to6 outr1" />
    <route id="right2"  edges="15to16 16to17 17to18 18to19 19to20 outr2" />
    <route id="right3"  edges="29to30 30to31 31to32 32to33 33to34 outr3" />
    <route id="left1"  edges="14to13 13to12 12to11 11to10 10to9 outl1" />
    <route id="left2"  edges="28to27 27to26 26to25 25to24 24to23 outl2" />
    <route id="down1"  edges="36to2 2to9 9to16 16to23 23to30 outs1" />
    <route id="down2"  edges="40to4 4to11 11to18 18to25 25to32 outs2" />
    <route id="down3"  edges="44to6 6to13 13to20 20to27 27to34 outs3" />
    <route id="up1"  edges="39to31 31to24 24to17 17to10 10to3 outn1" />
    <route id="up2"  edges="43to33 33to26 26to19 19to12 12to5 outn2" />
    <vehicle id="right1_0" type="Car" color="yellow" route="right1" departSpeed="desired" depart="0" />
    <vehicle id="right2_1" type="Car" color="yellow" route="right2" departSpeed="desired" depart="0" />
    <vehicle id="right3_2" type="Car" color="yellow" route="right3" departSpeed="desired" depart="0" />
    <vehicle id="down1_3" type="Car" color="yellow" route="down1" departSpeed="desired" depart="0" />
    <vehicle id="down2_4" type="Car" color="yellow" route="down2" departSpeed="desired" depart="0" />
    <vehicle id="down3_5" type="Car" color="yellow" route="down3" departSpeed="desired" depart="0" />
    <vehicle id="up1_6" type="Car" color="yellow" route="up1" departSpeed="desired" depart="0" />
    <vehicle id="up2_7" type="Car" color="yellow" route="up2" departSpeed="desired" depart="0" />
    <vehicle id="left1_8" type="Car" color="yellow" route="left1" departSpeed="desired" depart="0" />
    <vehicle id="left2_9" type="Car" color="yellow" route="left2" departSpeed="desired" depart="0" />
    <vehicle id="right1_10" type="Car" color="yellow" route="right1" departSpeed="desired" depart="1" />
    <vehicle id="right2_11" type="Car" color="yellow" route="right2" departSpeed="desired" depart="1" />
    <vehicle id="right3_12" type="Car" color="yellow" route="right3" departSpeed="desired" depart="1" />
    <vehicle id="down1_13" type="Car" color="yellow" route="down1" departSpeed="desired" depart="1" />
    <vehicle id="down2_14" type="Car" color="yellow" route="down2" departSpeed="desired" depart="1" />
    <vehicle id="down3_15" type="Car" color="yellow" route="down3" departSpeed="desired" depart="1" />
    <vehicle id="up1_16" type="Car" color="yellow" route="up1" departSpeed="desired" depart="1" />
    <vehicle id="up2_17" type="Car" color="yellow" route="up2" departSpeed="desired" depart="1" />
    <vehicle id="left1_18" type="Car" color="yellow" route="left1" departSpeed="desired" depart="1" />
    <vehicle id="left2_19" type="Car" color="yellow" route="left2" departSpeed="desired" depart="1" />
    <vehicle id="right1_20" type="Car" color="yellow" route="right1" departSpeed="desired" depart="2" />
    <vehicle id="right2_21" type="Car" color="yellow" route="right2" departSpeed="desired" depart="2" />
    <vehicle id="right3_22" type="Car" color="yellow" route="right3" departSpeed="desired" depart="2" />
    <vehicle id="down1_23" type="Car" color="yellow" route="down1" departSpeed="desired" depart="2" />
    <vehicle id="down2_24" type="Car" color="yellow" route="down2" departSpeed="desired" depart="2" />
    <vehicle id="down3_25" type="Car" color="yellow" route="down3" departSpeed="desired" depart="2" />
    <vehicle id="up1_26" type="Car" color="yellow" route="up1" departSpeed="desired" depart="2" />
    <vehicle id="up2_27" type="Car" color="yellow" route="up2" departSpeed="desired" depart="2" />
    <vehicle id="left1_28" type="Car" color="yellow" route="left1" departSpeed="desired" depart="2" />
    <vehicle id="left2_29" type="Car" color="yellow" route="left2" departSpeed="desired" depart="2" />
    <vehicle id="right1_30" type="Car" color="yellow" route="right1" departSpeed="desired" depart="3" />
    <vehicle id="right2_31" type="Car" color="yellow" route="right2" departSpeed="desired" depart="3" />
    <vehicle id="right3_32" type="Car" color="yellow" route="right3" departSpeed="desired" depart="3" />
    <vehicle id="down1_33" type="Car" color="yellow" route="down1" departSpeed="desired" depart="3" />
    <vehicle id="down2_34" type="Car" color="yellow" route="down2" departSpeed="desired" depart="3" />
    <vehicle id="down3_35" type="Car" color="yellow" route="down3" departSpeed="desired" depart="3" />
    <vehicle id="up1_36" type="Car" color="yellow" route="up1" departSpeed="desired" depart="3" />
    <vehicle id="up2_37" type="Car" color="yellow" route="up2" departSpeed="desired" depart="3" />
    <vehicle id="left1_38" type="Car" color="yellow" route="left1" departSpeed="desired" depart="3" />
    <vehicle id="left2_39" type="Car" color="yellow" route="left2" departSpeed="desired" depart="3" />
    <vehicle id="right1_40" type="Car" color="yellow" route="right1" departSpeed="desired" depart="4" />
    <vehicle id="right2_41" type="Car" color="yellow" route="right2" departSpeed="desired" depart="4" />
    <vehicle id="right3_42" type="Car" color="yellow" route="right3" departSpeed="desired" depart="4" />
    <vehicle id="down1_43" type="Car" color="yellow" route="down1" departSpeed="desired" depart="4" />
    <vehicle id="down2_44" type="Car" color="yellow" route="down2" departSpeed="desired" depart="4" />
    <vehicle id="down3_45" type="Car" color="yellow" route="down3" departSpeed="desired" depart="4" />
    <vehicle id="up1_46" type="Car" color="yellow" route="up1" departSpeed="desired" depart="4" />
    <vehicle id="up2_47" type="Car" color="yellow" route="up2" departSpeed="desired" depart="4" />
    <vehicle id="left1_48" type="Car" color="yellow" route="left1" departSpeed="desired" depart="4" />
    <vehicle id="left2_49" type="Car" color="yellow" route="left2" departSpeed="desired" depart="4" />
    <vehicle id="right1_50" type="Car" color="yellow" route="right1" departSpeed="desired" depart="5" />
    <vehicle id="right2_51" type="Car" color="yellow" route="right2" departSpeed="desired" depart="5" />
    <vehicle id="right3_52" type="Car" color="yellow" route="right3" departSpeed="desired" depart="5" />
    <vehicle id="down1_53" type="Car" color="yellow" route="down1" departSpeed="desired" depart="5" />
    <vehicle id="down2_54" type="Car" color="yellow" route="down2" departSpeed="desired" depart="5" />
    <vehicle id="down3_55" type="Car" color="yellow" route="down3" departSpeed="desired" depart="5" />
    <vehicle id="up1_56" type="Car" color="yellow" route="up1" departSpeed="desired" depart="5" />
    <vehicle id="up2_57" type="Car" color="yellow" route="up2" departSpeed="desired" depart="5" />
    <vehicle id="left1_58" type="Car" color="yellow" route="left1" departSpeed="desired" depart="5" />
    <vehicle id="left2_59" type="Car" color="yellow" route="left2" departSpeed="desired" depart="5" />
    <vehicle id="right1_60" type="Car" color="yellow" route="right1" departSpeed="desired" depart="6" />
    <vehicle id="right2_61" type="Car" color="yellow" route="right2" departSpeed="desired" depart="6" />
    <vehicle id="right3_62" type="Car" color="yellow" route="right3" departSpeed="desired" depart="6" />
    <vehicle id="down1_63" type="Car" color="yellow" route="down1" departSpeed="desired" depart="6" />
    <vehicle id="down2_64" type="Car" color="yellow" route="down2" departSpeed="desired" depart="6" />
    <vehicle id="down3_65" type="Car" color="yellow" route="down3" departSpeed="desired" depart="6" />
    <vehicle id="up1_66" type="Car" color="yellow" route="up1" departSpeed="desired" depart="6" />
    <vehicle id="up2_67" type="Car" color="yellow" route="up2" departSpeed="desired" depart="6" />
    <vehicle id="left1_68" type="Car" color="yellow" route="left1" departSpeed="desired" depart="6" />
    <vehicle id="left2_69" type="Car" color="yellow" route="left2" departSpeed="desired" depart="6" />
    <vehicle id="right1_70" type="Car" color="yellow" route="right1" departSpeed="desired" depart="7" />
    <vehicle id="right2_71" type="Car" color="yellow" route="right2" departSpeed="desired" depart="7" />
    <vehicle id="right3_72" type="Car" color="yellow" route="right3" departSpeed="desired" depart="7" />
    <vehicle id="down1_73" type="Car" color="yellow" route="down1" departSpeed="desired" depart="7" />
    <vehicle id="down2_74" type="Car" color="yellow" route="down2" departSpeed="desired" depart="7" />
    <vehicle id="down3_75" type="Car" color="yellow" route="down3" departSpeed="desired" depart="7" />
    <vehicle id="up1_76" type="Car" color="yellow" route="up1" departSpeed="desired" depart="7" />
    <vehicle id="up2_77" type="Car" color="yellow" route="up2" departSpeed="desired" depart="7" />
    <vehicle id="left1_78" type="Car" color="yellow" route="left1" departSpeed="desired" depart="7" />
    <vehicle id="left2_79" type="Car" color="yellow" route="left2" departSpeed="desired" depart="7" />
    <vehicle id="right1_80" type="Car" color="yellow" route="right1" departSpeed="desired" depart="8" />
    <vehicle id="right2_81" type="Car" color="yellow" route="right2" departSpeed="desired" depart="8" />
    <vehicle id="right3_82" type="Car" color="yellow" route="right3" departSpeed="desired" depart="8" />
    <vehicle id="down1_83" type="Car" color="yellow" route="down1" departSpeed="desired" depart="8" />
    <vehicle id="down2_84" type="Car" color="yellow" route="down2" departSpeed="desired" depart="8" />
    <vehicle id="down3_85" type="Car" color="yellow" route="down3" departSpeed="desired" depart="8" />
    <vehicle id="up1_86" type="Car" color="yellow" route="up1" departSpeed="desired" depart="8" />
    <vehicle id="up2_87" type="Car" color="yellow" route="up2" departSpeed="desired" depart="8" />
    <vehicle id="left1_88" type="Car" color="yellow" route="left1" departSpeed="desired" depart="8" />
    <vehicle id="left2_89" type="Car" color="yellow" route="left2" departSpeed="desired" depart="8" />
    <vehicle id="right1_90" type="Car" color="yellow" route="right1" departSpeed="desired" depart="9" />
    <vehicle id="right2_91" type="Car" color="yellow" route="right2" departSpeed="desired" depart="9" />
    <vehicle id="right3_92" type="Car" color="yellow" route="right3" departSpeed="desired" depart="9" />
    <vehicle id="down1_93" type="Car" color="yellow" route="down1" departSpeed="desired" depart="9" />
    <vehicle id="down2_94" type="Car" color="yellow" route="down2" departSpeed="desired" depart="9" />
    <vehicle id="down3_95" type="Car" color="yellow" route="down3" departSpeed="desired" depart="9" />
    <vehicle id="up1_96" type="Car" color="yellow" route="up1" departSpeed="desired" depart="9" />
    <vehicle id="up2_97" type="Car" color="yellow" route="up2" departSpeed="desired" depart="9" />
    <vehicle id="left1_98" type="Car" color="yellow" route="left1" departSpeed="desired" depart="9" />
    <vehicle id="left2_99" type="Car" color="yellow" route="left2" departSpeed="desired" depart="9" />
    <vehicle id="up1_100_emergency" type="Car" color="red" route="up1" departSpeed="desired" depart="10" />
    <vehicle id="right1_101" type="Car" color="yellow" route="right1" departSpeed="desired" depart="10" />
    <vehicle id="right2_102" type="Car" color="yellow" route="right2" departSpeed="desired" depart="10" />
    <vehicle id="right3_103" type="Car" color="yellow" route="right3" departSpeed="desired" depart="10" />
    <vehicle id="down1_104" type="Car" color="yellow" route="down1" departSpeed="desired" depart="10" />
    <vehicle id="down2_105" type="Car" color="yellow" route="down2" departSpeed="desired" depart="10" />
    <vehicle id="down3_106" type="Car" color="yellow" route="down3" departSpeed="desired" depart="10" />
    <vehicle id="up1_107" type="Car" color="yellow" route="up1" departSpeed="desired" depart="10" />
    <vehicle id="up2_108" type="Car" color="yellow" route="up2" departSpeed="desired" depart="10" />
    <vehicle id="left1_109" type="Car" color="yellow" route="left1" departSpeed="desired" depart="10" />
    <vehicle id="left2_110" type="Car" color="yellow" route="left2" departSpeed="desired" depart="10" />
    <vehicle id="right1_111" type="Car" color="yellow" route="right1" departSpeed="desired" depart="11" />
    <vehicle id="right2_112" type="Car" color="yellow" route="right2" departSpeed="desired" depart="11" />
    <vehicle id="right3_113" type="Car" color="yellow" route="right3" departSpeed="desired" depart="11" />
    <vehicle id="down1_114" type="Car" color="yellow" route="down1" departSpeed="desired" depart="11" />
    <vehicle id="down2_115" type="Car" color="yellow" route="down2" departSpeed="desired" depart="11" />
    <vehicle id="down3_116" type="Car" color="yellow" route="down3" departSpeed="desired" depart="11" />
    <vehicle id="up1_117" type="Car" color="yellow" route="up1" departSpeed="desired" depart="11" />
    <vehicle id="up2_118" type="Car" color="yellow" route="up2" departSpeed="desired" depart="11" />
    <vehicle id="left1_119" type="Car" color="yellow" route="left1" departSpeed="desired" depart="11" />
    <vehicle id="left2_120" type="Car" color="yellow" route="left2" departSpeed="desired" depart="11" />
    <vehicle id="right1_121" type="Car" color="yellow" route="right1" departSpeed="desired" depart="12" />
    <vehicle id="right2_122" type="Car" color="yellow" route="right2" departSpeed="desired" depart="12" />
    <vehicle id="right3_123" type="Car" color="yellow" route="right3" departSpeed="desired" depart="12" />
    <vehicle id="down1_124" type="Car" color="yellow" route="down1" departSpeed="desired" depart="12" />
    <vehicle id="down2_125" type="Car" color="yellow" route="down2" departSpeed="desired" depart="12" />
    <vehicle id="down3_126" type="Car" color="yellow" route="down3" departSpeed="desired" depart="12" />
    <vehicle id="up1_127" type="Car" color="yellow" route="up1" departSpeed="desired" depart="12" />
    <vehicle id="up2_128" type="Car" color="yellow" route="up2" departSpeed="desired" depart="12" />
    <vehicle id="left1_129" type="Car" color="yellow" route="left1" departSpeed="desired" depart="12" />
    <vehicle id="left2_130" type="Car" color="yellow" route="left2" departSpeed="desired" depart="12" />
    <vehicle id="right1_131" type="Car" color="yellow" route="right1" departSpeed="desired" depart="13" />
    <vehicle id="right2_132" type="Car" color="yellow" route="right2" departSpeed="desired" depart="13" />
    <vehicle id="right3_133" type="Car" color="yellow" route="right3" departSpeed="desired" depart="13" />
    <vehicle id="down1_134" type="Car" color="yellow" route="down1" departSpeed="desired" depart="13" />
    <vehicle id="down2_135" type="Car" color="yellow" route="down2" departSpeed="desired" depart="13" />
    <vehicle id="down3_136" type="Car" color="yellow" route="down3" departSpeed="desired" depart="13" />
    <vehicle id="up1_137" type="Car" color="yellow" route="up1" departSpeed="desired" depart="13" />
    <vehicle id="up2_138" type="Car" color="yellow" route="up2" departSpeed="desired" depart="13" />
    <vehicle id="left1_139" type="Car" color="yellow" route="left1" departSpeed="desired" depart="13" />
    <vehicle id="left2_140" type="Car" color="yellow" route="left2" departSpeed="desired" depart="13" />
    <vehicle id="right1_141" type="Car" color="yellow" route="right1" departSpeed="desired" depart="14" />
    <vehicle id="right2_142" type="Car" color="yellow" route="right2" departSpeed="desired" depart="14" />
    <vehicle id="right3_143" type="Car" color="yellow" route="right3" departSpeed="desired" depart="14" />
    <vehicle id="down1_144" type="Car" color="yellow" route="down1" departSpeed="desired" depart="14" />
    <vehicle id="down2_145" type="Car" color="yellow" route="down2" departSpeed="desired" depart="14" />
    <vehicle id="down3_146" type="Car" color="yellow" route="down3" departSpeed="desired" depart="14" />
    <vehicle id="up1_147" type="Car" color="yellow" route="up1" departSpeed="desired" depart="14" />
    <vehicle id="up2_148" type="Car" color="yellow" route="up2" departSpeed="desired" depart="14" />
    <vehicle id="left1_149" type="Car" color="yellow" route="left1" departSpeed="desired" depart="14" />
    <vehicle id="left2_150" type="Car" color="yellow" route="left2" departSpeed="desired" depart="14" />
    <vehicle id="right1_151" type="Car" color="yellow" route="right1" departSpeed="desired" depart="15" />
    <vehicle id="right2_152" type="Car" color="yellow" route="right2" departSpeed="desired" depart="15" />
    <vehicle id="right3_153" type="Car" color="yellow" route="right3" departSpeed="desired" depart="15" />
    <vehicle id="down1_154" type="Car" color="yellow" route="down1" departSpeed="desired" depart="15" />
    <vehicle id="down2_155" type="Car" color="yellow" route="down2" departSpeed="desired" depart="15" />
    <vehicle id="down3_156" type="Car" color="yellow" route="down3" departSpeed="desired" depart="15" />
    <vehicle id="up1_157" type="Car" color="yellow" route="up1" departSpeed="desired" depart="15" />
    <vehicle id="up2_158" type="Car" color="yellow" route="up2" departSpeed="desired" depart="15" />
    <vehicle id="left1_159" type="Car" color="yellow" route="left1" departSpeed="desired" depart="15" />
    <vehicle id="left2_160" type="Car" color="yellow" route="left2" departSpeed="desired" depart="15" />
    <vehicle id="right1_161" type="Car" color="yellow" route="right1" departSpeed="desired" depart="16" />
    <vehicle id="right2_162" type="Car" color="yellow" route="right2" departSpeed="desired" depart="16" />
    <vehicle id="right3_163" type="Car" color="yellow" route="right3" departSpeed="desired" depart="16" />
    <vehicle id="down1_164" type="Car" color="yellow" route="down1" departSpeed="desired" depart="16" />
    <vehicle id="down2_165" type="Car" color="yellow" route="down2" departSpeed="desired" depart="16" />
    <vehicle id="down3_166" type="Car" color="yellow" route="down3" departSpeed="desired" depart="16" />
    <vehicle id="up1_167" type="Car" color="yellow" route="up1" departSpeed="desired" depart="16" />
    <vehicle id="up2_168" type="Car" color="yellow" route="up2" departSpeed="desired" depart="16" />
    <vehicle id="left1_169" type="Car" color="yellow" route="left1" departSpeed="desired" depart="16" />
    <vehicle id="left2_170" type="Car" color="yellow" route="left2" departSpeed="desired" depart="16" />
    <vehicle id="right1_171" type="Car" color="yellow" route="right1" departSpeed="desired" depart="17" />
    <vehicle id="right2_172" type="Car" color="yellow" route="right2" departSpeed="desired" depart="17" />
    <vehicle id="right3_173" type="Car" color="yellow" route="right3" departSpeed="desired" depart="17" />
    <vehicle id="down1_174" type="Car" color="yellow" route="down1" departSpeed="desired" depart="17" />
    <vehicle id="down2_175" type="Car" color="yellow" route="down2" departSpeed="desired" depart="17" />
    <vehicle id="down3_176" type="Car" color="yellow" route="down3" departSpeed="desired" depart="17" />
    <vehicle id="up1_177" type="Car" color="yellow" route="up1" departSpeed="desired" depart="17" />
    <vehicle id="up2_178" type="Car" color="yellow" route="up2" departSpeed="desired" depart="17" />
    <vehicle id="left1_179" type="Car" color="yellow" route="left1" departSpeed="desired" depart="17" />
    <vehicle id="left2_180" type="Car" color="yellow" route="left2" departSpeed="desired" depart="17" />
    <vehicle id="right1_181" type="Car" color="yellow" route="right1" departSpeed="desired" depart="18" />
    <vehicle id="right2_182" type="Car" color="yellow" route="right2" departSpeed="desired" depart="18" />
    <vehicle id="right3_183" type="Car" color="yellow" route="right3" departSpeed="desired" depart="18" />
    <vehicle id="down1_184" type="Car" color="yellow" route="down1" departSpeed="desired" depart="18" />
    <vehicle id="down2_185" type="Car" color="yellow" route="down2" departSpeed="desired" depart="18" />
    <vehicle id="down3_186" type="Car" color="yellow" route="down3" departSpeed="desired" depart="18" />
    <vehicle id="up1_187" type="Car" color="yellow" route="up1" departSpeed="desired" depart="18" />
    <vehicle id="up2_188" type="Car" color="yellow" route="up2" departSpeed="desired" depart="18" />
    <vehicle id="left1_189" type="Car" color="yellow" route="left1" departSpeed="desired" depart="18" />
    <vehicle id="left2_190" type="Car" color="yellow" route="left2" departSpeed="desired" depart="18" />
    <vehicle id="right1_191" type="Car" color="yellow" route="right1" departSpeed="desired" depart="19" />
    <vehicle id="right2_192" type="Car" color="yellow" route="right2" departSpeed="desired" depart="19" />
    <vehicle id="right3_193" type="Car" color="yellow" route="right3" departSpeed="desired" depart="19" />
    <vehicle id="down1_194" type="Car" color="yellow" route="down1" departSpeed="desired" depart="19" />
    <vehicle id="down2_195" type="Car" color="yellow" route="down2" departSpeed="desired" depart="19" />
    <vehicle id="down3_196" type="Car" color="yellow" route="down3" departSpeed="desired" depart="19" />
    <vehicle id="up1_197" type="Car" color="yellow" route="up1" departSpeed="desired" depart="19" />
    <vehicle id="up2_198" type="Car" color="yellow" route="up2" departSpeed="desired" depart="19" />
    <vehicle id="left1_199" type="Car" color="yellow" route="left1" departSpeed="desired" depart="19" />
    <vehicle id="left2_200" type="Car" color="yellow" route="left2" departSpeed="desired" depart="19" />
    <vehicle id="right1_201" type="Car" color="yellow" route="right1" departSpeed="desired" depart="20" />
    <vehicle id="right2_202" type="Car" color="yellow" route="right2" departSpeed="desired" depart="20" />
    <vehicle id="right3_203" type="Car" color="yellow" route="right3" departSpeed="desired" depart="20" />
    <vehicle id="down1_204" type="Car" color="yellow" route="down1" departSpeed="desired" depart="20" />
    <vehicle id="down2_205" type="Car" color="yellow" route="down2" departSpeed="desired" depart="20" />
    <vehicle id="down3_206" type="Car" color="yellow" route="down3" departSpeed="desired" depart="20" />
    <vehicle id="up1_207" type="Car" color="yellow" route="up1" departSpeed="desired" depart="20" />
    <vehicle id="up2_208" type="Car" color="yellow" route="up2" departSpeed="desired" depart="20" />
    <vehicle id="left1_209" type="Car" color="yellow" route="left1" departSpeed="desired" depart="20" />
    <vehicle id="left2_210" type="Car" color="yellow" route="left2" departSpeed="desired" depart="20" />
    <vehicle id="right1_211" type="Car" color="yellow" route="right1" departSpeed="desired" depart="21" />
    <vehicle id="right2_212" type="Car" color="yellow" route="right2" departSpeed="desired" depart="21" />
    <vehicle id="right3_213" type="Car" color="yellow" route="right3" departSpeed="desired" depart="21" />
    <vehicle id="down1_214" type="Car" color="yellow" route="down1" departSpeed="desired" depart="21" />
    <vehicle id="down2_215" type="Car" color="yellow" route="down2" departSpeed="desired" depart="21" />
    <vehicle id="down3_216" type="Car" color="yellow" route="down3" departSpeed="desired" depart="21" />
    <vehicle id="up1_217" type="Car" color="yellow" route="up1" departSpeed="desired" depart="21" />
    <vehicle id="up2_218" type="Car" color="yellow" route="up2" departSpeed="desired" depart="21" />
    <vehicle id="left1_219" type="Car" color="yellow" route="left1" departSpeed="desired" depart="21" />
    <vehicle id="left2_220" type="Car" color="yellow" route="left2" departSpeed="desired" depart="21" />
    <vehicle id="right1_221" type="Car" color="yellow" route="right1" departSpeed="desired" depart="22" />
    <vehicle id="right2_222" type="Car" color="yellow" route="right2" departSpeed="desired" depart="22" />
    <vehicle id="right3_223" type="Car" color="yellow" route="right3" departSpeed="desired" depart="22" />
    <vehicle id="down1_224" type="Car" color="yellow" route="down1" departSpeed="desired" depart="22" />
    <vehicle id="down2_225" type="Car" color="yellow" route="down2" departSpeed="desired" depart="22" />
    <vehicle id="down3_226" type="Car" color="yellow" route="down3" departSpeed="desired" depart="22" />
    <vehicle id="up1_227" type="Car" color="yellow" route="up1" departSpeed="desired" depart="22" />
    <vehicle id="up2_228" type="Car" color="yellow" route="up2" departSpeed="desired" depart="22" />
    <vehicle id="left1_229" type="Car" color="yellow" route="left1" departSpeed="desired" depart="22" />
    <vehicle id="left2_230" type="Car" color="yellow" route="left2" departSpeed="desired" depart="22" />
    <vehicle id="right1_231" type="Car" color="yellow" route="right1" departSpeed="desired" depart="23" />
    <vehicle id="right2_232" type="Car" color="yellow" route="right2" departSpeed="desired" depart="23" />
    <vehicle id="right3_233" type="Car" color="yellow" route="right3" departSpeed="desired" depart="23" />
    <vehicle id="down1_234" type="Car" color="yellow" route="down1" departSpeed="desired" depart="23" />
    <vehicle id="down2_235" type="Car" color="yellow" route="down2" departSpeed="desired" depart="23" />
    <vehicle id="down3_236" type="Car" color="yellow" route="down3" departSpeed="desired" depart="23" />
    <vehicle id="up1_237" type="Car" color="yellow" route="up1" departSpeed="desired" depart="23" />
    <vehicle id="up2_238" type="Car" color="yellow" route="up2" departSpeed="desired" depart="23" />
    <vehicle id="left1_239" type="Car" color="yellow" route="left1" departSpeed="desired" depart="23" />
    <vehicle id="left2_240" type="Car" color="yellow" route="left2" departSpeed="desired" depart="23" />
    <vehicle id="right1_241" type="Car" color="yellow" route="right1" departSpeed="desired" depart="24" />
    <vehicle id="right2_242" type="Car" color="yellow" route="right2" departSpeed="desired" depart="24" />
    <vehicle id="right3_243" type="Car" color="yellow" route="right3" departSpeed="desired" depart="24" />
    <vehicle id="down1_244" type="Car" color="yellow" route="down1" departSpeed="desired" depart="24" />
    <vehicle id="down2_245" type="Car" color="yellow" route="down2" departSpeed="desired" depart="24" />
    <vehicle id="down3_246" type="Car" color="yellow" route="down3" departSpeed="desired" depart="24" />
    <vehicle id="up1_247" type="Car" color="yellow" route="up1" departSpeed="desired" depart="24" />
    <vehicle id="up2_248" type="Car" color="yellow" route="up2" departSpeed="desired" depart="24" />
    <vehicle id="left1_249" type="Car" color="yellow" route="left1" departSpeed="desired" depart="24" />
    <vehicle id="left2_250" type="Car" color="yellow" route="left2" departSpeed="desired" depart="24" />
    <vehicle id="right1_251" type="Car" color="yellow" route="right1" departSpeed="desired" depart="25" />
    <vehicle id="right2_252" type="Car" color="yellow" route="right2" departSpeed="desired" depart="25" />
    <vehicle id="right3_253" type="Car" color="yellow" route="right3" departSpeed="desired" depart="25" />
    <vehicle id="down1_254" type="Car" color="yellow" route="down1" departSpeed="desired" depart="25" />
    <vehicle id="down2_255" type="Car" color="yellow" route="down2" departSpeed="desired" depart="25" />
    <vehicle id="down3_256" type="Car" color="yellow" route="down3" departSpeed="desired" depart="25" />
    <vehicle id="up1_257" type="Car" color="yellow" route="up1" departSpeed="desired" depart="25" />
    <vehicle id="up2_258" type="Car" color="yellow" route="up2" departSpeed="desired" depart="25" />
    <vehicle id="left1_259" type="Car" color="yellow" route="left1" departSpeed="desired" depart="25" />
    <vehicle id="left2_260" type="Car" color="yellow" route="left2" departSpeed="desired" depart="25" />
    <vehicle id="right1_261" type="Car" color="yellow" route="right1" departSpeed="desired" depart="26" />
    <vehicle id="right2_262" type="Car" color="yellow" route="right2" departSpeed="desired" depart="26" />
    <vehicle id="right3_263" type="Car" color="yellow" route="right3" departSpeed="desired" depart="26" />
    <vehicle id="down1_264" type="Car" color="yellow" route="down1" departSpeed="desired" depart="26" />
    <vehicle id="down2_265" type="Car" color="yellow" route="down2" departSpeed="desired" depart="26" />
    <vehicle id="down3_266" type="Car" color="yellow" route="down3" departSpeed="desired" depart="26" />
    <vehicle id="up1_267" type="Car" color="yellow" route="up1" departSpeed="desired" depart="26" />
    <vehicle id="up2_268" type="Car" color="yellow" route="up2" departSpeed="desired" depart="26" />
    <vehicle id="left1_269" type="Car" color="yellow" route="left1" departSpeed="desired" depart="26" />
    <vehicle id="left2_270" type="Car" color="yellow" route="left2" departSpeed="desired" depart="26" />
    <vehicle id="right1_271" type="Car" color="yellow" route="right1" departSpeed="desired" depart="27" />
    <vehicle id="right2_272" type="Car" color="yellow" route="right2" departSpeed="desired" depart="27" />
    <vehicle id="right3_273" type="Car" color="yellow" route="right3" departSpeed="desired" depart="27" />
    <vehicle id="down1_274" type="Car" color="yellow" route="down1" departSpeed="desired" depart="27" />
    <vehicle id="down2_275" type="Car" color="yellow" route="down2" departSpeed="desired" depart="27" />
    <vehicle id="down3_276" type="Car" color="yellow" route="down3" departSpeed="desired" depart="27" />
    <vehicle id="up1_277" type="Car" color="yellow" route="up1" departSpeed="desired" depart="27" />
    <vehicle id="up2_278" type="Car" color="yellow" route="up2" departSpeed="desired" depart="27" />