<routes>
      <vType id="Car" length="5.00" minGap="2.50" maxSpeed="16.67" guiShape="passenger" carFollowModel="IDM" accel="0.8" decel="4.5" tau="1.0"/>
            
    <route id="right1"  edges="1to2 2to3 3to4 4to5 outr1" />
    <route id="right2"  edges="13to14 14to15 15to16 16to17 outr2" />
    <route id="left1"  edges="12to11 11to10 10to9 9to8 outl1" />
    <route id="left2"  edges="24to23 23to22 22to21 21to20 outl2" />
    <route id="down1"  edges="25to2 2to8 8to14 14to20 outs1" />
    <route id="down2"  edges="29to4 4to10 10to16 16to22 outs2" />
    <route id="up1"  edges="28to21 21to15 15to9 9to3 outn1" />
    <route id="up2"  edges="32to23 23to17 17to11 11to5 outn2" />
    <vehicle id="right1_0" type="Car" color="yellow" route="right1" departSpeed="desired" depart="0" />
    <vehicle id="right2_1" type="Car" color="yellow" route="right2" departSpeed="desired" depart="0" />
    <vehicle id="down1_2" type="Car" color="yellow" route="down1" departSpeed="desired" depart="0" />
    <vehicle id="up2_3" type="Car" color="yellow" route="up2" departSpeed="desired" depart="0" />
    <vehicle id="left2_4" type="Car" color="yellow" route="left2" departSpeed="desired" depart="0" />
    <vehicle id="down1_5" type="Car" color="yellow" route="down1" departSpeed="desired" depart="1" />
    <vehicle id="down2_6" type="Car" color="yellow" route="down2" departSpeed="desired" depart="1" />
    <vehicle id="up1_7" type="Car" color="yellow" route="up1" departSpeed="desired" depart="1" />
    <vehicle id="up2_8" type="Car" color="yellow" route="up2" departSpeed="desired" depart="1" />
    <vehicle id="left2_9" type="Car" color="yellow" route="left2" departSpeed="desired" depart="1" />
    <vehicle id="right1_10" type="Car" color="yellow" route="right1" departSpeed="desired" depart="2" />
    <vehicle id="right2_11" type="Car" color="yellow" route="right2" departSpeed="desired" depart="2" />
    <vehicle id="down1_12" type="Car" color="yellow" route="down1" departSpeed="desired" depart="2" />
    <vehicle id="down2_13" type="Car" color="yellow" route="down2" departSpeed="desired" depart="2" />
    <vehicle id="up1_14" type="Car" color="yellow" route="up1" departSpeed="desired" depart="2" />
    <vehicle id="left1_15" type="Car" color="yellow" route="left1" departSpeed="desired" depart="2" />
    <vehicle id="right1_16" type="Car" color="yellow" route="right1" departSpeed="desired" depart="3" />
    <vehicle id="down1_17" type="Car" color="yellow" route="down1" departSpeed="desired" depart="3" />
    <vehicle id="left1_18" type="Car" color="yellow" route="left1" departSpeed="desired" depart="3" />
    <vehicle id="left2_19" type="Car" color="yellow" route="left2" departSpeed="desired" depart="3" />
    <vehicle id="right1_20" type="Car" color="yellow" route="right1" departSpeed="desired" depart="4" />
    <vehicle id="down1_21" type="Car" color="yellow" route="down1" departSpeed="desired" depart="4" />
    <vehicle id="down2_22" type="Car" color="yellow" route="down2" departSpeed="desired" depart="4" />
    <vehicle id="up1_23" type="Car" color="yellow" route="up1" departSpeed="desired" depart="4" />
    <vehicle id="up2_24" type="Car" color="yellow" route="up2" departSpeed="desired" depart="4" />
    <vehicle id="left1_25" type="Car" color="yellow" route="left1" departSpeed="desired" depart="4" />
    <vehicle id="left2_26" type="Car" color="yellow" route="left2" departSpeed="desired" depart="4" />
    <vehicle id="right1_27" type="Car" color="yellow" route="right1" departSpeed="desired" depart="5" />
    <vehicle id="right2_28" type="Car" color="yellow" route="right2" departSpeed="desired" depart="5" />
    <vehicle id="down1_29" type="Car" color="yellow" route="down1" departSpeed="desired" depart="5" />
    <vehicle id="down2_30" type="Car" color="yellow" route="down2" departSpeed="desired" depart="5" />
    <vehicle id="up1_31" type="Car" color="yellow" route="up1" departSpeed="desired" depart="5" />
    <vehicle id="up2_32" type="Car" color="yellow" route="up2" departSpeed="desired" depart="5" />
    <vehicle id="left1_33" type="Car" color="yellow" route="left1" departSpeed="desired" depart="5" />
    <vehicle id="left2_34" type="Car" color="yellow" route="left2" departSpeed="desired" depart="5" />
    <vehicle id="right1_35" type="Car" color="yellow" route="right1" departSpeed="desired" depart="6" />
    <vehicle id="right2_36" type="Car" color="yellow" route="right2" departSpeed="desired" depart="6" />
    <vehicle id="down1_37" type="Car" color="yellow" route="down1" departSpeed="desired" depart="6" />
    <vehicle id="down2_38" type="Car" color="yellow" route="down2" departSpeed="desired" depart="6" />
    <vehicle id="up1_39" type="Car" color="yellow" route="up1" departSpeed="desired" depart="6" />
    <vehicle id="up2_40" type="Car" color="yellow" route="up2" departSpeed="desired" depart="6" />
    <vehicle id="left2_41" type="Car" color="yellow" route="left2" departSpeed="desired" depart="6" />
    <vehicle id="right1_42" type="Car" color="yellow" route="right1" departSpeed="desired" depart="7" />
    <vehicle id="down1_43" type="Car" color="yellow" route="down1" departSpeed="desired" depart="7" />
    <vehicle id="up1_44" type="Car" color="yellow" route="up1" departSpeed="desired" depart="7" />
    <vehicle id="up2_45" type="Car" color="yellow" route="up2" departSpeed="desired" depart="7" />
    <vehicle id="left1_46" type="Car" color="yellow" route="left1" departSpeed="desired" depart="7" />
    <vehicle id="left2_47" type="Car" color="yellow" route="left2" departSpeed="desired" depart="7" />
    <vehicle id="right2_48" type="Car" color="yellow" route="right2" departSpeed="desired" depart="8" />
    <vehicle id="down1_49" type="Car" color="yellow" route="down1" departSpeed="desired" depart="8" />
    <vehicle id="up1_50" type="Car" color="yellow" route="up1" departSpeed="desired" depart="8" />
    <vehicle id="up2_51" type="Car" color="yellow" route="up2" departSpeed="desired" depart="8" />
    <vehicle id="left1_52" type="Car" color="yellow" route="left1" departSpeed="desired" depart="8" />
    <vehicle id="left2_53" type="Car" color="yellow" route="left2" departSpeed="desired" depart="8" />
    <vehicle id="down1_54" type="Car" color="yellow" route="down1" departSpeed="desired" depart="9" />
    <vehicle id="down2_55" type="Car" color="yellow" route="down2" departSpeed="desired" depart="9" />
    <vehicle id="left1_56" type="Car" color="yellow" route="left1" departSpeed="desired" depart="9" />
    <vehicle id="left2_57" type="Car" color="yellow" route="left2" departSpeed="desired" depart="9" />
    <vehicle id="right1_58" type="Car" color="yellow" route="right1" departSpeed="desired" depart="10" />
    <vehicle id="right2_59" type="Car" color="yellow" route="right2" departSpeed="desired" depart="10" />
    <vehicle id="down1_60" type="Car" color="yellow" route="down1" departSpeed="desired" depart="10" />
    <vehicle id="down2_61" type="Car" color="yellow" route="down2" departSpeed="desired" depart="10" />
    <vehicle id="left1_62" type="Car" color="yellow" route="left1" departSpeed="desired" depart="10" />
    <vehicle id="left2_63" type="Car" color="yellow" route="left2" departSpeed="desired" depart="10" />
    <vehicle id="right2_64" type="Car" color="yellow" route="right2" departSpeed="desired" depart="11" />
    <vehicle id="down1_65" type="Car" color="yellow" route="down1" departSpeed="desired" depart="11" />
    <vehicle id="down2_66" type="Car" color="yellow" route="down2" departSpeed="desired" depart="11" />
    <vehicle id="up1_67" type="Car" color="yellow" route="up1" departSpeed="desired" depart="11" />
    <vehicle id="up2_68" type="Car" color="yellow" route="up2" departSpeed="desired" depart="11" />
    <vehicle id="left2_69" type="Car" color="yellow" route="left2" departSpeed="desired" depart="11" />
    <vehicle id="right2_70" type="Car" color="yellow" route="right2" departSpeed="desired" depart="12" />
    <vehicle id="down1_71" type="Car" color="yellow" route="down1" departSpeed="desired" depart="12" />
    <vehicle id="up1_72" type="Car" color="yellow" route="up1" departSpeed="desired" depart="12" />
    <vehicle id="up2_73" type="Car" color="yellow" route="up2" departSpeed="desired" depart="12" />
    <vehicle id="left1_74" type="Car" color="yellow" route="left1" departSpeed="desired" depart="12" />
    <vehicle id="left2_75" type="Car" color="yellow" route="left2" departSpeed="desired" depart="12" />
    <vehicle id="right1_76" type="Car" color="yellow" route="right1" departSpeed="desired" depart="13" />
    <vehicle id="right2_77" type="Car" color="yellow" route="right2" departSpeed="desired" depart="13" />
    <vehicle id="down1_78" type="Car" color="yellow" route="down1" departSpeed="desired" depart="13" />
    <vehicle id="down2_79" type="Car" color="yellow" route="down2" departSpeed="desired" depart="13" />
    <vehicle id="up1_80" type="Car" color="yellow" route="up1" departSpeed="desired" depart="13" />
    <vehicle id="up2_81" type="Car" color="yellow" route="up2" departSpeed="desired" depart="13" />
    <vehicle id="left1_82" type="Car" color="yellow" route="left1" departSpeed="desired" depart="13" />
    <vehicle id="left2_83" type="Car" color="yellow" route="left2" departSpeed="desired" depart="13" />
    <vehicle id="right2_84" type="Car" color="yellow" route="right2" departSpeed="desired" depart="14" />
    <vehicle id="down1_85" type="Car" color="yellow" route="down1" departSpeed="desired" depart="14" />
    <vehicle id="down2_86" type="Car" color="yellow" route="down2" departSpeed="desired" depart="14" />
    <vehicle id="up1_87" type="Car" color="yellow" route="up1" departSpeed="desired" depart="14" />
    <vehicle id="up2_88" type="Car" color="yellow" route="up2" departSpeed="desired" depart="14" />
    <vehicle id="left1_89" type="Car" color="yellow" route="left1" departSpeed="desired" depart="14" />
    <vehicle id="right1_90" type="Car" color="yellow" route="right1" departSpeed="desired" depart="15" />
    <vehicle id="down1_91" type="Car" color="yellow" route="down1" departSpeed="desired" depart="15" />
    <vehicle id="down2_92" type="Car" color="yellow" route="down2" departSpeed="desired" depart="15" />
    <vehicle id="up1_93" type="Car" color="yellow" route="up1" departSpeed="desired" depart="15" />
    <vehicle id="left1_94" type="Car" color="yellow" route="left1" departSpeed="desired" depart="15" />
    <vehicle id="left2_95" type="Car" color="yellow" route="left2" departSpeed="desired" depart="15" />
    <vehicle id="right1_96" type="Car" color="yellow" route="right1" departSpeed="desired" depart="16" />
    <vehicle id="right2_97" type="Car" color="yellow" route="right2" departSpeed="desired" depart="16" />
    <vehicle id="up2_98" type="Car" color="yellow" route="up2" departSpeed="desired" depart="16" />
    <vehicle id="left1_99" type="Car" color="yellow" route="left1" departSpeed="desired" depart="16" />
    <vehicle id="left2_100" type="Car" color="yellow" route="left2" departSpeed="desired" depart="16" />
    <vehicle id="right1_101" type="Car" color="yellow" route="right1" departSpeed="desired" depart="17" />
    <vehicle id="right2_102" type="Car" color="yellow" route="right2" departSpeed="desired" depart="17" />
    <vehicle id="up2_103" type="Car" color="yellow" route="up2" departSpeed="desired" depart="17" />
    <vehicle id="left1_104" type="Car" color="yellow" route="left1" departSpeed="desired" depart="17" />
    <vehicle id="right1_105" type="Car" color="yellow" route="right1" departSpeed="desired" depart="18" />
    <vehicle id="down1_106" type="Car" color="yellow" route="down1" departSpeed="desired" depart="18" />
    <vehicle id="up1_107" type="Car" color="yellow" route="up1" departSpeed="desired" depart="18" />
    <vehicle id="left1_108" type="Car" color="yellow" route="left1" departSpeed="desired" depart="18" />
    <vehicle id="left2_109" type="Car" color="yellow" route="left2" departSpeed="desired" depart="18" />
    <vehicle id="right1_110" type="Car" color="yellow" route="right1" departSpeed="desired" depart="19" />
    <vehicle id="down1_111" type="Car" color="yellow" route="down1" departSpeed="desired" depart="19" />
    <vehicle id="down2_112" type="Car" color="yellow" route="down2" departSpeed="desired" depart="19" />
    <vehicle id="up1_113" type="Car" color="yellow" route="up1" departSpeed="desired" depart="19" />
    <vehicle id="left2_114" type="Car" color="yellow" route="left2" departSpeed="desired" depart="19" />
    <vehicle id="right1_115" type="Car" color="yellow" route="right1" departSpeed="desired" depart="20" />
    <vehicle id="right2_116" type="Car" color="yellow" route="right2" departSpeed="desired" depart="20" />
    <vehicle id="down2_117" type="Car" color="yellow" route="down2" departSpeed="desired" depart="20" />
    <vehicle id="up1_118" type="Car" color="yellow" route="up1" departSpeed="desired" depart="20" />
    <vehicle id="up2_119" type="Car" color="yellow" route="up2" departSpeed="desired" depart="20" />
    <vehicle id="left1_120" type="Car" color="yellow" route="left1" departSpeed="desired" depart="20" />
    <vehicle id="left2_121" type="Car" color="yellow" route="left2" departSpeed="desired" depart="20" />
    <vehicle id="right1_122" type="Car" color="yellow" route="right1" departSpeed="desired" depart="21" />
    <vehicle id="right2_123" type="Car" color="yellow" route="right2" departSpeed="desired" depart="21" />
    <vehicle id="up1_124" type="Car" color="yellow" route="up1" departSpeed="desired" depart="21" />
    <vehicle id="up2_125" type="Car" color="yellow" route="up2" departSpeed="desired" depart="21" />
    <vehicle id="left1_126" type="Car" color="yellow" route="left1" departSpeed="desired" depart="21" />
    <vehicle id="left2_127" type="Car" color="yellow" route="left2" departSpeed="desired" depart="21" />
    <vehicle id="right1_128" type="Car" color="yellow" route="right1" departSpeed="desired" depart="22" />
    <vehicle id="right2_129" type="Car" color="yellow" route="right2" departSpeed="desired" depart="22" />
    <vehicle id="down1_130" type="Car" color="yellow" route="down1" departSpeed="desired" depart="22" />
    <vehicle id="up2_131" type="Car" color="yellow" route="up2" departSpeed="desired" depart="22" />
    <vehicle id="left1_132" type="Car" color="yellow" route="left1" departSpeed="desired" depart="22" />
    <vehicle id="left2_133" type="Car" color="yellow" route="left2" departSpeed="desired" depart="22" />
    <vehicle id="right2_134" type="Car" color="yellow" route="right2" departSpeed="desired" depart="23" />
    <vehicle id="down2_135" type="Car" color="yellow" route="down2" departSpeed="desired" depart="23" />
    <vehicle id="up1_136" type="Car" color="yellow" route="up1" departSpeed="desired" depart="23" />
    <vehicle id="up2_137" type="Car" color="yellow" route="up2" departSpeed="desired" depart="23" />
    <vehicle id="left1_138" type="Car" color="yellow" route="left1" departSpeed="desired" depart="23" />
    <vehicle id="right1_139" type="Car" color="yellow" route="right1" departSpeed="desired" depart="24" />
    <vehicle id="right2_140" type="Car" color="yellow" route="right2" departSpeed="desired" depart="24" />
    <vehicle id="down1_141" type="Car" color="yellow" route="down1" departSpeed="desired" depart="24" />
    <vehicle id="down2_142" type="Car" color="yellow" route="down2" departSpeed="desired" depart="24" />
    <vehicle id="up1_143" type="Car" color="yellow" route="up1" departSpeed="desired" depart="24" />
    <vehicle id="left1_144" type="Car" color="yellow" route="left1" departSpeed="desired" depart="24" />
    <vehicle id="left2_145" type="Car" color="yellow" route="left2" departSpeed="desired" depart="24" />
    <vehicle id="right1_146" type="Car" color="yellow" route="right1" departSpeed="desired" depart="25" />
    <vehicle id="right2_147" type="Car" color="yellow" route="right2" departSpeed="desired" depart="25" />
    <vehicle id="down1_148" type="Car" color="yellow" route="down1" departSpeed="desired" depart="25" />
    <vehicle id="down2_149" type="Car" color="yellow" route="down2" departSpeed="desired" depart="25" />
    <vehicle id="up1_150" type="Car" color="yellow" route="up1" departSpeed="desired" depart="25" />
    <vehicle id="up2_151" type="Car" color="yellow" route="up2" departSpeed="desired" depart="25" />
    <vehicle id="left1_152" type="Car" color="yellow" route="left1" departSpeed="desired" depart="25" />
    <vehicle id="left2_153" type="Car" color="yellow" route="left2" departSpeed="desired" depart="25" />
    <vehicle id="right1_154" type="Car" color="yellow" route="right1" departSpeed="desired" depart="26" />
    <vehicle id="right2_155" type="Car" color="yellow" route="right2" departSpeed="desired" depart="26" />
    <vehicle id="down1_156" type="Car" color="yellow" route="down1" departSpeed="desired" depart="26" />
    <vehicle id="down2_157" type="Car" color="yellow" route="down2" departSpeed="desired" depart="26" />
    <vehicle id="up1_158" type="Car" color="yellow" route="up1" departSpeed="desired" depart="26" />
    <vehicle id="left1_159" type="Car" color="yellow" route="left1" departSpeed="desired" depart="26" />
    <vehicle id="right1_160" type="Car" color="yellow" route="right1" departSpeed="desired" depart="27" />
    <vehicle id="right2_161" type="Car" color="yellow" route="right2" departSpeed="desired" depart="27" />
    <vehicle id="down1_162" type="Car" color="yellow" route="down1" departSpeed="desired" depart="27" />
    <vehicle id="down2_163" type="Car" color="yellow" route="down2" departSpeed="desired" depart="27" />
    <vehicle id="up1_164" type="Car" color="yellow" route="up1" departSpeed="desired" depart="27" />
    <vehicle id="up2_165" type="Car" color="yellow" route="up2" departSpeed="desired" depart="27" />
    <vehicle id="left1_166" type="Car" color="yellow" route="left1" departSpeed="desired" depart="27" />
    <vehicle id="right1_167" type="Car" color="yellow" route="right1" departSpeed="desired" depart="28" />
    <vehicle id="down1_168" type="Car" color="yellow" route="down1" departSpeed="desired" depart="28" />
    <vehicle id="down2_169" type="Car" color="yellow" route="down2" departSpeed="desired" depart="28" />
    <vehicle id="up2_170" type="Car" color="yellow" route="up2" departSpeed="desired" depart="28" />
    <vehicle id="left2_171" type="Car" color="yellow" route="left2" departSpeed="desired" depart="28" />
    <vehicle id="right1_172" type="Car" color="yellow" route="right1" departSpeed="desired" depart="29" />
    <vehicle id="right2_173" type="Car" color="yellow" route="right2" departSpeed="desired" depart="29" />
    <vehicle id="down1_174" type="Car" color="yellow" route="down1" departSpeed="desired" depart="29" />
    <vehicle id="down2_175" type="Car" color="yellow" route="down2" departSpeed="desired" depart="29" />
    <vehicle id="up1_176" type="Car" color="yellow" route="up1" departSpeed="desired" depart="29" />
    <vehicle id="left1_177" type="Car" color="yellow" route="left1" departSpeed="desired" depart="29" />
    <vehicle id="left2_178" type="Car" color="yellow" route="left2" departSpeed="desired" depart="29" />
    <vehicle id="right1_179" type="Car" color="yellow" route="right1" departSpeed="desired" depart="30" />
    <vehicle id="right2_180" type="Car" color="yellow" route="right2" departSpeed="desired" depart="30" />
    <vehicle id="down1_181" type="Car" color="yellow" route="down1" departSpeed="desired" depart="30" />
    <vehicle id="left1_182" type="Car" color="yellow" route="left1" departSpeed="desired" depart="30" />
    <vehicle id="left2_183" type="Car" color="yellow" route="left2" departSpeed="desired" depart="30" />
    <vehicle id="right1_184" type="Car" color="yellow" route="right1" departSpeed="desired" depart="31" />
    <vehicle id="right2_185" type="Car" color="yellow" route="right2" departSpeed="desired" depart="31" />
    <vehicle id="down1_186" type="Car" color="yellow" route="down1" departSpeed="desired" depart="31" />
    <vehicle id="down2_187" type="Car" color="yellow" route="down2" departSpeed="desired" depart="31" />
    <vehicle id="up1_188" type="Car" color="yellow" route="up1" departSpeed="desired" depart="31" />
    <vehicle id="up2_189" type="Car" color="yellow" route="up2" departSpeed="desired" depart="31" />
    <vehicle id="right1_190" type="Car" color="yellow" route="right1" departSpeed="desired" depart="32" />
    <vehicle id="up1_191" type="Car" color="yellow" route="up1" departSpeed="desired" depart="32" />
    <vehicle id="left1_192" type="Car" color="yellow" route="left1" departSpeed="desired" depart="32" />
    <vehicle id="left2_193" type="Car" color="yellow" route="left2" departSpeed="desired" depart="32" />
    <vehicle id="right1_194" type="Car" color="yellow" route="right1" departSpeed="desired" depart="33" />
    <vehicle id="right2_195" type="Car" color="yellow" route="right2" departSpeed="desired" depart="33" />
    <vehicle id="down2_196" type="Car" color="yellow" route="down2" departSpeed="desired" depart="33" />
    <vehicle id="up1_197" type="Car" color="yellow" route="up1" departSpeed="desired" depart="33" />
    <vehicle id="up2_198" type="Car" color="yellow" route="up2" departSpeed="desired" depart="33" />
    <vehicle id="left1_199" type="Car" color="yellow" route="left1" departSpeed="desired" depart="33" />
    <vehicle id="left2_200" type="Car" color="yellow" route="left2" departSpeed="desired" depart="33" />
    <vehicle id="right1_201" type="Car" color="yellow" route="right1" departSpeed="desired" depart="34" />
    <vehicle id="right2_202" type="Car" color="yellow" route="right2" departSpeed="desired" depart="34" />
    <vehicle id="down1_203" type="Car" color="yellow" route="down1" departSpeed="desired" depart="34" />
    <vehicle id="down2_204" type="Car" color="yellow" route="down2" departSpeed="desired" depart="34" />
    <vehicle id="up1_205" type="Car" color="yellow" route="up1" departSpeed="desired" depart="34" />
    <vehicle id="left1_206" type="Car" color="yellow" route="left1" departSpeed="desired" depart="34" />
    <vehicle id="left2_207" type="Car" color="yellow" route="left2" departSpeed="desired" depart="34" />
    <vehicle id="right1_208" type="Car" color="yellow" route="right1" departSpeed="desired" depart="35" />
    <vehicle id="up1_209" type="Car" color="yellow" route="up1" departSpeed="desired" depart="35" />
    <vehicle id="up2_210" type="Car" color="yellow" route="up2" departSpeed="desired" depart="35" />
    <vehicle id="left1_211" type="Car" color="yellow" route="left1" departSpeed="desired" depart="35" />
    <vehicle id="right1_212" type="Car" color="yellow" route="right1" departSpeed="desired" depart="36" />
    <vehicle id="right2_213" type="Car" color="yellow" route="right2" departSpeed="desired" depart="36" />
    <vehicle id="down2_214" type="Car" color="yellow" route="down2" departSpeed="desired" depart="36" />
    <vehicle id="up1_215" type="Car" color="yellow" route="up1" departSpeed="desired" depart="36" />
    <vehicle id="left2_216" type="Car" color="yellow" route="left2" departSpeed="desired" depart="36" />
    <vehicle id="right2_217" type="Car" color="yellow" route="right2" departSpeed="desired" depart="37" />
    <vehicle id="down2_218" type="Car" color="yellow" route="down2" departSpeed="desired" depart="37" />
    <vehicle id="up1_219" type="Car" color="yellow" route="up1" departSpeed="desired" depart="37" />
    <vehicle id="up2_220" type="Car" color="yellow" route="up2" departSpeed="desired" depart="37" />
    <vehicle id="left1_221" type="Car" color="yellow" route="left1" departSpeed="desired" depart="37" />
    <vehicle id="left2_222" type="Car" color="yellow" route="left2" departSpeed="desired" depart="37" />
    <vehicle id="right1_223" type="Car" color="yellow" route="right1" departSpeed="desired" depart="38" />
    <vehicle id="right2_224" type="Car" color="yellow" route="right2" departSpeed="desired" depart="38" />
    <vehicle id="down1_225" type="Car" color="yellow" route="down1" departSpeed="desired" depart="38" />
    <vehicle id="up1_226" type="Car" color="yellow" route="up1" departSpeed="desired" depart="38" />
    <vehicle id="left2_227" type="Car" color="yellow" route="left2" departSpeed="desired" depart="38" />
    <vehicle id="down1_228" type="Car" color="yellow" route="down1" departSpeed="desired" depart="39" />
    <vehicle id="up1_229" type="Car" color="yellow" route="up1" departSpeed="desired" depart="39" />
    <vehicle id="up2_230" type="Car" color="yellow" route="up2" departSpeed="desired" depart="39" />
    <vehicle id="left2_231" type="Car" color="yellow" route="left2" departSpeed="desired" depart="39" />
    <vehicle id="right2_232" type="Car" color="yellow" route="right2" departSpeed="desired" depart="40" />
    <vehicle id="down1_233" type="Car" color="yellow" route="down1" departSpeed="desired" depart="40" />
    <vehicle id="up1_234" type="Car" color="yellow" route="up1" departSpeed="desired" depart="40" />
    <vehicle id="left2_235" type="Car" color="yellow" route="left2" departSpeed="desired" depart="40" />
    <vehicle id="right1_236" type="Car" color="yellow" route="right1" departSpeed="desired" depart="41" />
    <vehicle id="right2_237" type="Car" color="yellow" route="right2" departSpeed="desired" depart="41" />
    <vehicle id="up1_238" type="Car" color="yellow" route="up1" departSpeed="desired" depart="41" />
    <vehicle id="left1_239" type="Car" color="yellow" route="left1" departSpeed="desired" depart="41" />
    <vehicle id="left2_240" type="Car" color="yellow" route="left2" departSpeed="desired" depart="41" />
    <vehicle id="down2_241" type="Car" color="yellow" route="down2" departSpeed="desired" depart="42" />
    <vehicle id="up2_242" type="Car" color="yellow" route="up2" departSpeed="desired" depart="42" />
    <vehicle id="left1_243" type="Car" color="yellow" route="left1" departSpeed="desired" depart="42" />
    <vehicle id="left2_244" type="Car" color="yellow" route="left2" departSpeed="desired" depart="42" />
    <vehicle id="right1_245" type="Car" color="yellow" route="right1" departSpeed="desired" depart="43" />
    <vehicle id="up2_246" type="Car" color="yellow" route="up2" departSpeed="desired" depart="43" />
    <vehicle id="left1_247" type="Car" color="yellow" route="left1" departSpeed="desired" depart="43" />
    <vehicle id="left2_248" type="Car" color="yellow" route="left2" departSpeed="desired" depart="43" />
    <vehicle id="down1_249" type="Car" color="yellow" route="down1" departSpeed="desired" depart="44" />
    <vehicle id="up1_250" type="Car" color="yellow" route="up1" departSpeed="desired" depart="44" />
    <vehicle id="left2_251" type="Car" color="yellow" route="left2" departSpeed="desired" depart="44" />
    <vehicle id="right1_252" type="Car" color="yellow" route="right1" departSpeed="desired" depart="45" />
    <vehicle id="right2_253" type="Car" color="yellow" route="right2" departSpeed="desired" depart="45" />
    <vehicle id="down2_254" type="Car" color="yellow" route="down2" departSpeed="desired" depart="45" />
    <vehicle id="up1_255" type="Car" color="yellow" route="up1" departSpeed="desired" depart="45" />
    <vehicle id="up2_256" type="Car" color="yellow" route="up2" departSpeed="desired" depart="45" />
    <vehicle id="left2_257" type="Car" color="yellow" route="left2" departSpeed="desired" depart="45" />
    <vehicle id="right1_258" type="Car" color="yellow" route="right1" departSpeed="desired" depart="46" />
    <vehicle id="down1_259" type="Car" color="yellow" route="down1" departSpeed="desired" depart="46" />
    <vehicle id="down2_260" type="Car" color="yellow" route="down2" departSpeed="desired" depart="46" />
    <vehicle id="up1_261" type="Car" color="yellow" route="up1" departSpeed="desired" depart="46" />
    <vehicle id="left1_262" type="Car" color="yellow" route="left1" departSpeed="desired" depart="46" />
    <vehicle id="left2_263" type="Car" color="yellow" route="left2" departSpeed="desired" depart="46" />
    <vehicle id="right1_264" type="Car" color="yellow" route="right1" departSpeed="desired" depart="47" />
    <vehicle id="right2_265" type="Car" color="yellow" route="right2" departSpeed="desired" depart="47" />
    <vehicle id="down2_266" type="Car" color="yellow" route="down2" departSpeed="desired" depart="47" />
    <vehicle id="up1_267" type="Car" color="yellow" route="up1" departSpeed="desired" depart="47" />
    <vehicle id="left1_268" type="Car" color="yellow" route="left1" departSpeed="desired" depart="47" />
    <vehicle id="left2_269" type="Car" color="yellow" route="left2" departSpeed="desired" depart="47" />
    <vehicle id="right1_270" type="Car" color="yellow" route="right1" departSpeed="desired" depart="48" />
    <vehicle id="right2_271" type="Car" color="yellow" route="right2" departSpeed="desired" depart="48" />
    <vehicle id="down1_272" type="Car" color="yellow" route="down1" departSpeed="desired" depart="48" />
    <vehicle id="down2_273" type="Car" color="yellow" route="down2" departSpeed="desired" depart="48" />
    <vehicle id="up1_274" type="Car" color="yellow" route="up1" departSpeed="desired" depart="48" />
    <vehicle id="left1_275" type="Car" color="yellow" route="left1" departSpeed="desired" depart="48" />
    <vehicle id="right1_276" type="Car" color="yellow" route="right1" departSpeed="desired" depart="49" />
    <vehicle id="right2_277" type="Car" color="yellow" route="right2" departSpeed="desired" depart="49" />
    <vehicle id="down1_278" type="Car" color="yellow" route="down1" departSpeed="desired" depart="49" />
    <vehicle id="down2_279" type="Car" color="yellow" route="down2" departSpeed="desired" depart="49" />
    <vehicle id="up1_280" type="Car" color="yellow" route="up1" departSpeed="desired" depart="49" />