<routes>
      <vType id="Car" length="5.00" minGap="2.50" maxSpeed="16.67" guiShape="passenger" carFollowModel="IDM" accel="0.8" decel="4.5" tau="1.0"/>
            
    <route id="right1"  edges="1to2 2to3 outr1" />
    <route id="left1"  edges="8to7 7to6 outl1" />
    <route id="down1"  edges="9to2 2to6 outs1" />
    <route id="up1"  edges="12to7 7to3 outn1" />
    <vehicle id="right1_0" type="Car" color="yellow" route="right1" departSpeed="desired" depart="0" />
    <vehicle id="down1_1" type="Car" color="yellow" route="down1" departSpeed="desired" depart="0" />
    <vehicle id="right1_2" type="Car" color="yellow" route="right1" departSpeed="desired" depart="1" />
    <vehicle id="down1_3" type="Car" color="yellow" route="down1" departSpeed="desired" depart="1" />
    <vehicle id="right1_4" type="Car" color="yellow" route="right1" departSpeed="desired" depart="2" />
    <vehicle id="down1_5" type="Car" color="yellow" route="down1" departSpeed="desired" depart="2" />
    <vehicle id="right1_6" type="Car" color="yellow" route="right1" departSpeed="desired" depart="3" />
    <vehicle id="down1_7" type="Car" color="yellow" route="down1" departSpeed="desired" depart="3" />
    <vehicle id="up1_8" type="Car" color="yellow" route="up1" departSpeed="desired" depart="3" />
    <vehicle id="right1_9" type="Car" color="yellow" route="right1" departSpeed="desired" depart="4" />
    <vehicle id="down1_10" type="Car" color="yellow" route="down1" departSpeed="desired" depart="4" />
    <vehicle id="right1_11" type="Car" color="yellow" route="right1" departSpeed="desired" depart="5" />
    <vehicle id="down1_12" type="Car" color="yellow" route="down1" departSpeed="desired" depart="5" />
    <vehicle id="right1_13" type="Car" color="yellow" route="right1" departSpeed="desired" depart="6" />
    <vehicle id="down1_14" type="Car" color="yellow" route="down1" departSpeed="desired" depart="6" />
    <vehicle id="right1_15" type="Car" color="yellow" route="right1" departSpeed="desired" depart="7" />
    <vehicle id="down1_16" type="Car" color="yellow" route="down1" departSpeed="desired" depart="7" />
    <vehicle id="right1_17" type="Car" color="yellow" route="right1" departSpeed="desired" depart="8" />
    <vehicle id="down1_18" type="Car" color="yellow" route="down1" departSpeed="desired" depart="8" />
    <vehicle id="left1_19" type="Car" color="yellow" route="left1" departSpeed="desired" depart="8" />
    <vehicle id="right1_20" type="Car" color="yellow" route="right1" departSpeed="desired" depart="9" />
    <vehicle id="down1_21" type="Car" color="yellow" route="down1" departSpeed="desired" depart="9" />
    <vehicle id="right1_22" type="Car" color="yellow" route="right1" departSpeed="desired" depart="10" />
    <vehicle id="down1_23" type="Car" color="yellow" route="down1" departSpeed="desired" depart="10" />
    <vehicle id="right1_24" type="Car" color="yellow" route="right1" departSpeed="desired" depart="11" />
    <vehicle id="down1_25" type="Car" color="yellow" route="down1" departSpeed="desired" depart="11" />
    <vehicle id="left1_26" type="Car" color="yellow" route="left1" departSpeed="desired" depart="11" />
    <vehicle id="right1_27" type="Car" color="yellow" route="right1" departSpeed="desired" depart="12" />
    <vehicle id="down1_28" type="Car" color="yellow" route="down1" departSpeed="desired" depart="12" />
    <vehicle id="right1_29" type="Car" color="yellow" route="right1" departSpeed="desired" depart="13" />
    <vehicle id="down1_30" type="Car" color="yellow" route="down1" departSpeed="desired" depart="13" />
    <vehicle id="right1_31" type="Car" color="yellow" route="right1" departSpeed="desired" depart="14" />
    <vehicle id="down1_32" type="Car" color="yellow" route="down1" departSpeed="desired" depart="14" />
    <vehicle id="up1_33" type="Car" color="yellow" route="up1" departSpeed="desired" depart="14" />
    <vehicle id="right1_34" type="Car" color="yellow" route="right1" departSpeed="desired" depart="15" />
    <vehicle id="down1_35" type="Car" color="yellow" route="down1" departSpeed="desired" depart="15" />
    <vehicle id="right1_36" type="Car" color="yellow" route="right1" departSpeed="desired" depart="16" />
    <vehicle id="down1_37" type="Car" color="yellow" route="down1" departSpeed="desired" depart="16" />
    <vehicle id="right1_38" type="Car" color="yellow" route="right1" departSpeed="desired" depart="17" />
    <vehicle id="down1_39" type="Car" color="yellow" route="down1" departSpeed="desired" depart="17" />
    <vehicle id="right1_40_emergency" type="Car" color="red" route="right1" departSpeed="desired" depart="18" />
    <vehicle id="right1_41" type="Car" color="yellow" route="right1" departSpeed="desired" depart="18" />
    <vehicle id="down1_42" type="Car" color="yellow" route="down1" departSpeed="desired" depart="18" />
    <vehicle id="right1_43" type="Car" color="yellow" route="right1" departSpeed="desired" depart="19" />
    <vehicle id="down1_44" type="Car" color="yellow" route="down1" departSpeed="desired" depart="19" />
    <vehicle id="right1_45" type="Car" color="yellow" route="right1" departSpeed="desired" depart="20" />
    <vehicle id="down1_46" type="Car" color="yellow" route="down1" departSpeed="desired" depart="20" />
    <vehicle id="right1_47" type="Car" color="yellow" route="right1" departSpeed="desired" depart="21" />
    <vehicle id="down1_48" type="Car" color="yellow" route="down1" departSpeed="desired" depart="21" />
    <vehicle id="up1_49" type="Car" color="yellow" route="up1" departSpeed="desired" depart="21" />
    <vehicle id="right1_50" type="Car" color="yellow" route="right1" departSpeed="desired" depart="22" />
    <vehicle id="down1_51" type="Car" color="yellow" route="down1" departSpeed="desired" depart="22" />
    <vehicle id="left1_52" type="Car" color="yellow" route="left1" departSpeed="desired" depart="22" />
    <vehicle id="right1_53" type="Car" color="yellow" route="right1" departSpeed="desired" depart="23" />
    <vehicle id="down1_54" type="Car" color="yellow" route="down1" departSpeed="desired" depart="23" />
    <vehicle id="right1_55" type="Car" color="yellow" route="right1" departSpeed="desired" depart="24" />
    <vehicle id="down1_56" type="Car" color="yellow" route="down1" departSpeed="desired" depart="24" />
    <vehicle id="right1_57" type="Car" color="yellow" route="right1" departSpeed="desired" depart="25" />
    <vehicle id="down1_58" type="Car" color="yellow" route="down1" departSpeed="desired" depart="25" />
    <vehicle id="right1_59" type="Car" color="yellow" route="right1" departSpeed="desired" depart="26" />
    <vehicle id="down1_60" type="Car" color="yellow" route="down1" departSpeed="desired" depart="26" />
    <vehicle id="right1_61" type="Car" color="yellow" route="right1" departSpeed="desired" depart="27" />
    <vehicle id="down1_62" type="Car" color="yellow" route="down1" departSpeed="desired" depart="27" />
    <vehicle id="down1_63_emergency" type="Car" color="red" route="down1" departSpeed="desired" depart="28" />
    <vehicle id="right1_64" type="Car" color="yellow" route="right1" departSpeed="desired" depart="28" />
    <vehicle id="down1_65" type="Car" color="yellow" route="down1" departSpeed="desired" depart="28" />
    <vehicle id="right1_66" type="Car" color="yellow" route="right1" departSpeed="desired" depart="29" />
    <vehicle id="down1_67" type="Car" color="yellow" route="down1" departSpeed="desired" depart="29" />
    <vehicle id="right1_68" type="Car" color="yellow" route="right1" departSpeed="desired" depart="30" />
    <vehicle id="down1_69" type="Car" color="yellow" route="down1" departSpeed="desired" depart="30" />
    <vehicle id="right1_70" type="Car" color="yellow" route="right1" departSpeed="desired" depart="31" />
    <vehicle id="down1_71" type="Car" color="yellow" route="down1" departSpeed="desired" depart="31" />
    <vehicle id="right1_72" type="Car" color="yellow" route="right1" departSpeed="desired" depart="32" />
    <vehicle id="down1_73" type="Car" color="yellow" route="down1" departSpeed="desired" depart="32" />
    <vehicle id="right1_74" type="Car" color="yellow" route="right1" departSpeed="desired" depart="33" />
    <vehicle id="down1_75" type="Car" color="yellow" route="down1" departSpeed="desired" depart="33" />
    <vehicle id="right1_76" type="Car" color="yellow" route="right1" departSpeed="desired" depart="34" />
    <vehicle id="down1_77" type="Car" color="yellow" route="down1" departSpeed="desired" depart="34" />
    <vehicle id="right1_78" type="Car" color="yellow" route="right1" departSpeed="desired" depart="35" />
    <vehicle id="down1_79" type="Car" color="yellow" route="down1" departSpeed="desired" depart="35" />
    <vehicle id="left1_80" type="Car" color="yellow" route="left1" departSpeed="desired" depart="35" />
    <vehicle id="right1_81" type="Car" color="yellow" route="right1" departSpeed="desired" depart="36" />
    <vehicle id="down1_82" type="Car" color="yellow" route="down1" departSpeed="desired" depart="36" />
    <vehicle id="right1_83" type="Car" color="yellow" route="right1" departSpeed="desired" depart="37" />
    <vehicle id="down1_84" type="Car" color="yellow" route="down1" departSpeed="desired" depart="37" />
    <vehicle id="right1_85" type="Car" color="yellow" route="right1" departSpeed="desired" depart="38" />
    <vehicle id="down1_86" type="Car" color="yellow" route="down1" departSpeed="desired" depart="38" />
    <vehicle id="right1_87" type="Car" color="yellow" route="right1" departSpeed="desired" depart="39" />
    <vehicle id="down1_88" type="Car" color="yellow" route="down1" departSpeed="desired" depart="39" />
    <vehicle id="right1_89" type="Car" color="yellow" route="right1" departSpeed="desired" depart="40" />
    <vehicle id="down1_90" type="Car" color="yellow" route="down1" departSpeed="desired" depart="40" />
    <vehicle id="up1_91" type="Car" color="yellow" route="up1" departSpeed="desired" depart="40" />
    <vehicle id="right1_92" type="Car" color="yellow" route="right1" departSpeed="desired" depart="41" />
    <vehicle id="down1_93" type="Car" color="yellow" route="down1" departSpeed="desired" depart="41" />
    <vehicle id="right1_94" type="Car" color="yellow" route="right1" departSpeed="desired" depart="42" />
    <vehicle id="down1_95" type="Car" color="yellow" route="down1" departSpeed="desired" depart="42" />
    <vehicle id="right1_96" type="Car" color="yellow" route="right1" departSpeed="desired" depart="43" />
    <vehicle id="down1_97" type="Car" color="yellow" route="down1" departSpeed="desired" depart="43" />
    <vehicle id="right1_98" type="Car" color="yellow" route="right1" departSpeed="desired" depart="44" />
    <vehicle id="down1_99" type="Car" color="yellow" route="down1" departSpeed="desired" depart="44" />
    <vehicle id="left1_100" type="Car" color="yellow" route="left1" departSpeed="desired" depart="44" />
    <vehicle id="right1_101" type="Car" color="yellow" route="right1" departSpeed="desired" depart="45" />
    <vehicle id="down1_102" type="Car" color="yellow" route="down1" departSpeed="desired" depart="45" />
    <vehicle id="right1_103" type="Car" color="yellow" route="right1" departSpeed="desired" depart="46" />
    <vehicle id="down1_104" type="Car" color="yellow" route="down1" departSpeed="desired" depart="46" />
    <vehicle id="right1_105" type="Car" color="yellow" route="right1" departSpeed="desired" depart="47" />
    <vehicle id="down1_106" type="Car" color="yellow" route="down1" departSpeed="desired" depart="47" />
    <vehicle id="right1_107" type="Car" color="yellow" route="right1" departSpeed="desired" depart="48" />
    <vehicle id="down1_108" type="Car" color="yellow" route="down1" departSpeed="desired" depart="48" />
    <vehicle id="right1_109" type="Car" color="yellow" route="right1" departSpeed="desired" depart="49" />
    <vehicle id="down1_110" type="Car" color="yellow" route="down1" departSpeed="desired" depart="49" />
    <vehicle id="right1_111" type="Car" color="yellow" route="right1" departSpeed="desired" depart="50" />
    <vehicle id="down1_112" type="Car" color="yellow" route="down1" departSpeed="desired" depart="50" />
    <vehicle id="right1_113" type="Car" color="yellow" route="right1" departSpeed="desired" depart="51" />
    <vehicle id="down1_114" type="Car" color="yellow" route="down1" departSpeed="desired" depart="51" />
    <vehicle id="left1_115" type="Car" color="yellow" route="left1" departSpeed="desired" depart="51" />
    <vehicle id="right1_116" type="Car" color="yellow" route="right1" departSpeed="desired" depart="52" />
    <vehicle id="down1_117" type="Car" color="yellow" route="down1" departSpeed="desired" depart="52" />
    <vehicle id="right1_118" type="Car" color="yellow" route="right1" departSpeed="desired" depart="53" />
    <vehicle id="down1_119" type="Car" color="yellow" route="down1" departSpeed="desired" depart="53" />
    <vehicle id="right1_120" type="Car" color="yellow" route="right1" departSpeed="desired" depart="54" />
    <vehicle id="down1_121" type="Car" color="yellow" route="down1" departSpeed="desired" depart="54" />
    <vehicle id="left1_122" type="Car" color="yellow" route="left1" departSpeed="desired" depart="54" />
    <vehicle id="right1_123" type="Car" color="yellow" route="right1" departSpeed="desired" depart="55" />
    <vehicle id="down1_124" type="Car" color="yellow" route="down1" departSpeed="desired" depart="55" />
    <vehicle id="right1_125" type="Car" color="yellow" route="right1" departSpeed="desired" depart="56" />
    <vehicle id="down1_126" type="Car" color="yellow" route="down1" departSpeed="desired" depart="56" />
    <vehicle id="left1_127" type="Car" color="yellow" route="left1" departSpeed="desired" depart="56" />
    <vehicle id="right1_128" type="Car" color="yellow" route="right1" departSpeed="desired" depart="57" />
    <vehicle id="down1_129" type="Car" color="yellow" route="down1" departSpeed="desired" depart="57" />
    <vehicle id="right1_130" type="Car" color="yellow" route="right1" departSpeed="desired" depart="58" />
    <vehicle id="down1_131" type="Car" color="yellow" route="down1" departSpeed="desired" depart="58" />
    <vehicle id="up1_132" type="Car" color="yellow" route="up1" departSpeed="desired" depart="58" />
    <vehicle id="right1_133" type="Car" color="yellow" route="right1" departSpeed="desired" depart="59" />
    <vehicle id="down1_134" type="Car" color="yellow" route="down1" departSpeed="desired" depart="59" />
    <vehicle id="right1_135" type="Car" color="yellow" route="right1" departSpeed="desired" depart="60" />
    <vehicle id="down1_136" type="Car" color="yellow" route="down1" departSpeed="desired" depart="60" />
    <vehicle id="right1_137" type="Car" color="yellow" route="right1" departSpeed="desired" depart="61" />
    <vehicle id="down1_138" type="Car" color="yellow" route="down1" departSpeed="desired" depart="61" />
    <vehicle id="right1_139" type="Car" color="yellow" route="right1" departSpeed="desired" depart="62" />
    <vehicle id="down1_140" type="Car" color="yellow" route="down1" departSpeed="desired" depart="62" />
    <vehicle id="left1_141" type="Car" color="yellow" route="left1" departSpeed="desired" depart="62" />
    <vehicle id="right1_142" type="Car" color="yellow" route="right1" departSpeed="desired" depart="63" />
    <vehicle id="down1_143" type="Car" color="yellow" route="down1" departSpeed="desired" depart="63" />
    <vehicle id="right1_144" type="Car" color="yellow" route="right1" departSpeed="desired" depart="64" />
    <vehicle id="down1_145" type="Car" color="yellow" route="down1" departSpeed="desired" depart="64" />
    <vehicle id="right1_146" type="Car" color="yellow" route="right1" departSpeed="desired" depart="65" />
    <vehicle id="down1_147" type="Car" color="yellow" route="down1" departSpeed="desired" depart="65" />
    <vehicle id="right1_148" type="Car" color="yellow" route="right1" departSpeed="desired" depart="66" />
    <vehicle id="down1_149" type="Car" color="yellow" route="down1" departSpeed="desired" depart="66" />
    <vehicle id="right1_150" type="Car" color="yellow" route="right1" departSpeed="desired" depart="67" />
    <vehicle id="down1_151" type="Car" color="yellow" route="down1" departSpeed="desired" depart="67" />
    <vehicle id="right1_152" type="Car" color="yellow" route="right1" departSpeed="desired" depart="68" />
    <vehicle id="down1_153" type="Car" color="yellow" route="down1" departSpeed="desired" depart="68" />
    <vehicle id="right1_154" type="Car" color="yellow" route="right1" departSpeed="desired" depart="69" />
    <vehicle id="down1_155" type="Car" color="yellow" route="down1" departSpeed="desired" depart="69" />
    <vehicle id="right1_156" type="Car" color="yellow" route="right1" departSpeed="desired" depart="70" />
    <vehicle id="down1_157" type="Car" color="yellow" route="down1" departSpeed="desired" depart="70" />
    <vehicle id="right1_158" type="Car" color="yellow" route="right1" departSpeed="desired" depart="71" />
    <vehicle id="down1_159" type="Car" color="yellow" route="down1" departSpeed="desired" depart="71" />
    <vehicle id="right1_160" type="Car" color="yellow" route="right1" departSpeed="desired" depart="72" />
    <vehicle id="down1_161" type="Car" color="yellow" route="down1" departSpeed="desired" depart="72" />
    <vehicle id="right1_162" type="Car" color="yellow" route="right1" departSpeed="desired" depart="73" />
    <vehicle id="down1_163" type="Car" color="yellow" route="down1" departSpeed="desired" depart="73" />
    <vehicle id="right1_164" type="Car" color="yellow" route="right1" departSpeed="desired" depart="74" />
    <vehicle id="down1_165" type="Car" color="yellow" route="down1" departSpeed="desired" depart="74" />
    <vehicle id="right1_166" type="Car" color="yellow" route="right1" departSpeed="desired" depart="75" />
    <vehicle id="down1_167" type="Car" color="yellow" route="down1" departSpeed="desired" depart="75" />
    <vehicle id="up1_168" type="Car" color="yellow" route="up1" departSpeed="desired" depart="75" />
    <vehicle id="right1_169" type="Car" color="yellow" route="right1" departSpeed="desired" depart="76" />
    <vehicle id="down1_170" type="Car" color="yellow" route="down1" departSpeed="desired" depart="76" />
    <vehicle id="right1_171" type="Car" color="yellow" route="right1" departSpeed="desired" depart="77" />
    <vehicle id="down1_172" type="Car" color="yellow" route="down1" departSpeed="desired" depart="77" />
    <vehicle id="right1_173" type="Car" color="yellow" route="right1" departSpeed="desired" depart="78" />
    <vehicle id="down1_174" type="Car" color="yellow" route="down1" departSpeed="desired" depart="78" />
    <vehicle id="right1_175" type="Car" color="yellow" route="right1" departSpeed="desired" depart="79" />
    <vehicle id="down1_176" type="Car" color="yellow" route="down1" departSpeed="desired" depart="79" />
    <vehicle id="right1_177" type="Car" color="yellow" route="right1" departSpeed="desired" depart="80" />
    <vehicle id="down1_178" type="Car" color="yellow" route="down1" departSpeed="desired" depart="80" />
    <vehicle id="left1_179" type="Car" color="yellow" route="left1" departSpeed="desired" depart="80" />
    <vehicle id="right1_180" type="Car" color="yellow" route="right1" departSpeed="desired" depart="81" />
    <vehicle id="down1_181" type="Car" color="yellow" route="down1" departSpeed="desired" depart="81" />
    <vehicle id="right1_182" type="Car" color="yellow" route="right1" departSpeed="desired" depart="82" />
    <vehicle id="down1_183" type="Car" color="yellow" route="down1" departSpeed="desired" depart="82" />
    <vehicle id="left1_184" type="Car" color="yellow" route="left1" departSpeed="desired" depart="82" />
    <vehicle id="right1_185_emergency" type="Car" color="red" route="right1" departSpeed="desired" depart="83" />
    <vehicle id="right1_186" type="Car" color="yellow" route="right1" departSpeed="desired" depart="83" />
    <vehicle id="down1_187" type="Car" color="yellow" route="down1" departSpeed="desired" depart="83" />
    <vehicle id="right1_188" type="Car" color="yellow" route="right1" departSpeed="desired" depart="84" />
    <vehicle id="down1_189" type="Car" color="yellow" route="down1" departSpeed="desired" depart="84" />
    <vehicle id="right1_190" type="Car" color="yellow" route="right1" departSpeed="desired" depart="85" />
    <vehicle id="down1_191" type="Car" color="yellow" route="down1" departSpeed="desired" depart="85" />
    <vehicle id="right1_192" type="Car" color="yellow" route="right1" departSpeed="desired" depart="86" />
    <vehicle id="down1_193" type="Car" color="yellow" route="down1" departSpeed="desired" depart="86" />
    <vehicle id="right1_194" type="Car" color="yellow" route="right1" departSpeed="desired" depart="87" />
    <vehicle id="down1_195" type="Car" color="yellow" route="down1" departSpeed="desired" depart="87" />
    <vehicle id="right1_196" type="Car" color="yellow" route="right1" departSpeed="desired" depart="88" />
    <vehicle id="down1_197" type="Car" color="yellow" route="down1" departSpeed="desired" depart="88" />
    <vehicle id="right1_198" type="Car" color="yellow" route="right1" departSpeed="desired" depart="89" />
    <vehicle id="down1_199" type="Car" color="yellow" route="down1" departSpeed="desired" depart="89" />
    <vehicle id="up1_200" type="Car" color="yellow" route="up1" departSpeed="desired" depart="89" />
    <vehicle id="right1_201" type="Car" color="yellow" route="right1" departSpeed="desired" depart="90" />
    <vehicle id="down1_202" type="Car" color="yellow" route="down1" departSpeed="desired" depart="90" />
    <vehicle id="right1_203" type="Car" color="yellow" route="right1" departSpeed="desired" depart="91" />
    <vehicle id="down1_204" type="Car" color="yellow" route="down1" departSpeed="desired" depart="91" />
    <vehicle id="right1_205" type="Car" color="yellow" route="right1" departSpeed="desired" depart="92" />
    <vehicle id="down1_206" type="Car" color="yellow" route="down1" departSpeed="desired" depart="92" />
    <vehicle id="right1_207" type="Car" color="yellow" route="right1" departSpeed="desired" depart="93" />
    <vehicle id="down1_208" type="Car" color="yellow" route="down1" departSpeed="desired" depart="93" />
    <vehicle id="right1_209" type="Car" color="yellow" route="right1" departSpeed="desired" depart="94" />
    <vehicle id="down1_210" type="Car" color="yellow" route="down1" departSpeed="desired" depart="94" />
    <vehicle id="right1_211" type="Car" color="yellow" route="right1" departSpeed="desired" depart="95" />
    <vehicle id="down1_212" type="Car" color="yellow" route="down1" departSpeed="desired" depart="95" />
    <vehicle id="right1_213" type="Car" color="yellow" route="right1" departSpeed="desired" depart="96" />
    <vehicle id="down1_214" type="Car" color="yellow" route="down1" departSpeed="desired" depart="96" />
    <vehicle id="right1_215" type="Car" color="yellow" route="right1" departSpeed="desired" depart="97" />
    <vehicle id="down1_216" type="Car" color="yellow" route="down1" departSpeed="desired" depart="97" />
    <vehicle id="right1_217" type="Car" color="yellow" route="right1" departSpeed="desired" depart="98" />
    <vehicle id="down1_218" type="Car" color="yellow" route="down1" departSpeed="desired" depart="98" />
    <vehicle id="right1_219" type="Car" color="yellow" route="right1" departSpeed="desired" depart="99" />
    <vehicle id="down1_220" type="Car" color="yellow" route="down1" departSpeed="desired" depart="99" />
    <vehicle id="right1_221" type="Car" color="yellow" route="right1" departSpeed="desired" depart="100" />
    <vehicle id="down1_222" type="Car" color="yellow" route="down1" departSpeed="desired" depart="100" />
    <vehicle id="right1_223" type="Car" color="yellow" route="right1" departSpeed="desired" depart="101" />
    <vehicle id="down1_224" type="Car" color="yellow" route="down1" departSpeed="desired" depart="101" />
    <vehicle id="left1_225" type="Car" color="yellow" route="left1" departSpeed="desired" depart="101" />
    <vehicle id="right1_226" type="Car" color="yellow" route="right1" departSpeed="desired" depart="102" />
    <vehicle id="down1_227" type="Car" color="yellow" route="down1" departSpeed="desired" depart="102" />
    <vehicle id="up1_228" type="Car" color="yellow" route="up1" departSpeed="desired" depart="102" />
    <vehicle id="right1_229" type="Car" color="yellow" route="right1" departSpeed="desired" depart="103" />
    <vehicle id="down1_230" type="Car" color="yellow" route="down1" departSpeed="desired" depart="103" />
    <vehicle id="up1_231" type="Car" color="yellow" route="up1" departSpeed="desired" depart="103" />
    <vehicle id="right1_232" type="Car" color="yellow" route="right1" departSpeed="desired" depart="104" />
    <vehicle id="down1_233" type="Car" color="yellow" route="down1" departSpeed="desired" depart="104" />
    <vehicle id="left1_234" type="Car" color="yellow" route="left1" departSpeed="desired" depart="104" />
    <vehicle id="right1_235" type="Car" color="yellow" route="right1" departSpeed="desired" depart="105" />
    <vehicle id="down1_236" type="Car" color="yellow" route="down1" departSpeed="desired" depart="105" />
    <vehicle id="up1_237" type="Car" color="yellow" route="up1" departSpeed="desired" depart="105" />
    <vehicle id="right1_238" type="Car" color="yellow" route="right1" departSpeed="desired" depart="106" />
    <vehicle id="down1_239" type="Car" color="yellow" route="down1" departSpeed="desired" depart="106" />
    <vehicle id="up1_240" type="Car" color="yellow" route="up1" departSpeed="desired" depart="106" />
    <vehicle id="right1_241" type="Car" color="yellow" route="right1" departSpeed="desired" depart="107" />
    <vehicle id="down1_242" type="Car" color="yellow" route="down1" departSpeed="desired" depart="107" />
    <vehicle id="right1_243" type="Car" color="yellow" route="right1" departSpeed="desired" depart="108" />
    <vehicle id="down1_244" type="Car" color="yellow" route="down1" departSpeed="desired" depart="108" />
    <vehicle id="up1_245" type="Car" color="yellow" route="up1" departSpeed="desired" depart="108" />
    <vehicle id="right1_246" type="Car" color="yellow" route="right1" departSpeed="desired" depart="109" />
    <vehicle id="down1_247" type="Car" color="yellow" route="down1" departSpeed="desired" depart="109" />
    <vehicle id="right1_248" type="Car" color="yellow" route="right1" departSpeed="desired" depart="110" />
    <vehicle id="down1_249" type="Car" color="yellow" route="down1" departSpeed="desired" depart="110" />
    <vehicle id="right1_250" type="Car" color="yellow" route="right1" departSpeed="desired" depart="111" />
    <vehicle id="down1_251" type="Car" color="yellow" route="down1" departSpeed="desired" depart="111" />
    <vehicle id="right1_252" type="Car" color="yellow" route="right1" departSpeed="desired" depart="112" />
    <vehicle id="down1_253" type="Car" color="yellow" route="down1" departSpeed="desired" depart="112" />
    <vehicle id="up1_254" type="Car" color="yellow" route="up1" departSpeed="desired" depart="112" />
    <vehicle id="right1_255" type="Car" color="yellow" route="right1" departSpeed="desired" depart="113" />
    <vehicle id="down1_256" type="Car" color="yellow" route="down1" departSpeed="desired" depart="113" />
    <vehicle id="right1_257" type="Car" color="yellow" route="right1" departSpeed="desired" depart="114" />
    <vehicle id="down1_258" type="Car" color="yellow" route="down1" departSpeed="desired" depart="114" />
    <vehicle id="right1_259" type="Car" color="yellow" route="right1" departSpeed="desired" depart="115" />
    <vehicle id="down1_260" type="Car" color="yellow" route="down1" departSpeed="desired" depart="115" />
    <vehicle id="right1_261" type="Car" color="yellow" route="right1" departSpeed="desired" depart="116" />
    <vehicle id="down1_262" type="Car" color="yellow" route="down1" departSpeed="desired" depart="116" />
    <vehicle id="left1_263" type="Car" color="yellow" route="left1" departSpeed="desired" depart="116" />
    <vehicle id="right1_264" type="Car" color="yellow" route="right1" departSpeed="desired" depart="117" />
    <vehicle id="down1_265" type="Car" color="yellow" route="down1" departSpeed="desired" depart="117" />
    <vehicle id="right1_266" type="Car" color="yellow" route="right1" departSpeed="desired" depart="118" />
    <vehicle id="down1_267" type="Car" color="yellow" route="down1" departSpeed="desired" depart="118" />
    <vehicle id="right1_268" type="Car" color="yellow" route="right1" departSpeed="desired" depart="119" />
    <vehicle id="down1_269" type="Car" color="yellow" route="down1" departSpeed="desired" depart="119" />
    <vehicle id="right1_270" type="Car" color="yellow" route="right1" departSpeed="desired" depart="120" />
    <vehicle id="down1_271" type="Car" color="yellow" route="down1" departSpeed="desired" depart="120" />
    <vehicle id="right1_272" type="Car" color="yellow" route="right1" departSpeed="desired" depart="121" />
    <vehicle id="down1_273" type="Car" color="yellow" route="down1" departSpeed="desired" depart="121" />
    <vehicle id="right1_274" type="Car" color="yellow" route="right1" departSpeed="desired" depart="122" />
    <vehicle id="down1_275" type="Car" color="yellow" route="down1" departSpeed="desired" depart="122" />
    <vehicle id="right1_276" type="Car" color="yellow" route="right1" departSpeed="desired" depart="123" />
    <vehicle id="down1_277" type="Car" color="yellow" route="down1" departSpeed="desired" depart="123" />
    <vehicle id="right1_278" type="Car" color="yellow" route="right1" departSpeed="desired" depart="124" />
    <vehicle id="down1_279" type="Car" color="yellow" route="down1" departSpeed="desired" depart="124" />