<routes>
        <vType id="Car" length="5.00" minGap="2.50" maxSpeed="16.67" guiShape="passenger" carFollowModel="IDM" accel="0.8" decel="4.5" tau="1.0"/>

        <route id="right" edges="1to2 2to3 outr" />
        <route id="down" edges="9to2 2to6 outs" />
        <route id="up" edges="12to7 7to3 outn" />
        <route id="left" edges="8to7 7to6 outl" />
        
    <vehicle id="down_0" type="Car" route="down" departSpeed="desired" depart="0" />
    <vehicle id="up_1" type="Car" route="up" departSpeed="desired" depart="1" />
    <vehicle id="left_2" type="Car" route="left" departSpeed="desired" depart="1" />
    <vehicle id="down_3" type="Car" route="down" departSpeed="desired" depart="2" />
    <vehicle id="right_4" type="Car" route="right" departSpeed="desired" depart="3" />
    <vehicle id="up_5" type="Car" route="up" departSpeed="desired" depart="3" />
    <vehicle id="down_6" type="Car" route="down" departSpeed="desired" depart="4" />
    <vehicle id="left_7" type="Car" route="left" departSpeed="desired" depart="4" />
    <vehicle id="down_8" type="Car" route="down" departSpeed="desired" depart="8" />
    <vehicle id="left_9" type="Car" route="left" departSpeed="desired" depart="8" />
    <vehicle id="right_10" type="Car" route="right" departSpeed="desired" depart="9" />
    <vehicle id="right_11" type="Car" route="right" departSpeed="desired" depart="10" />
    <vehicle id="right_12" type="Car" route="right" departSpeed="desired" depart="11" />
    <vehicle id="down_13" type="Car" route="down" departSpeed="desired" depart="11" />
    <vehicle id="right_14" type="Car" route="right" departSpeed="desired" depart="13" />
    <vehicle id="right_15" type="Car" route="right" departSpeed="desired" depart="16" />
    <vehicle id="down_16" type="Car" route="down" departSpeed="desired" depart="17" />
    <vehicle id="left_17" type="Car" route="left" departSpeed="desired" depart="17" />
    <vehicle id="right_18" type="Car" route="right" departSpeed="desired" depart="18" />
    <vehicle id="left_19" type="Car" route="left" departSpeed="desired" depart="18" />
    <vehicle id="right_20" type="Car" route="right" departSpeed="desired" depart="20" />
    <vehicle id="down_21" type="Car" route="down" departSpeed="desired" depart="21" />
    <vehicle id="down_22" type="Car" route="down" departSpeed="desired" depart="24" />
    <vehicle id="down_23" type="Car" route="down" departSpeed="desired" depart="25" />
    <vehicle id="up_24" type="Car" route="up" departSpeed="desired" depart="25" />
    <vehicle id="up_25" type="Car" route="up" departSpeed="desired" depart="26" />
    <vehicle id="right_26" type="Car" route="right" departSpeed="desired" depart="27" />
    <vehicle id="down_27" type="Car" route="down" departSpeed="desired" depart="27" />
    <vehicle id="down_28" type="Car" route="down" departSpeed="desired" depart="29" />
    <vehicle id="down_29" type="Car" route="down" departSpeed="desired" depart="31" />
    <vehicle id="right_30" type="Car" route="right" departSpeed="desired" depart="32" />
    <vehicle id="down_31" type="Car" route="down" departSpeed="desired" depart="32" />
    <vehicle id="down_32" type="Car" route="down" departSpeed="desired" depart="33" />
    <vehicle id="right_33" type="Car" route="right" departSpeed="desired" depart="34" />
    <vehicle id="down_34" type="Car" route="down" departSpeed="desired" depart="35" />
    <vehicle id="right_35" type="Car" route="right" departSpeed="desired" depart="37" />
    <vehicle id="right_36" type="Car" route="right" departSpeed="desired" depart="38" />
    <vehicle id="right_37" type="Car" route="right" departSpeed="desired" depart="40" />
    <vehicle id="down_38" type="Car" route="down" departSpeed="desired" depart="41" />
    <vehicle id="right_39" type="Car" route="right" departSpeed="desired" depart="42" />
    <vehicle id="right_40" type="Car" route="right" departSpeed="desired" depart="46" />
    <vehicle id="down_41" type="Car" route="down" departSpeed="desired" depart="47" />
    <vehicle id="right_42" type="Car" route="right" departSpeed="desired" depart="48" />
    <vehicle id="down_43" type="Car" route="down" departSpeed="desired" depart="50" />
    <vehicle id="right_44" type="Car" route="right" departSpeed="desired" depart="52" />
    <vehicle id="left_45" type="Car" route="left" departSpeed="desired" depart="52" />
    <vehicle id="down_46" type="Car" route="down" departSpeed="desired" depart="54" />
    <vehicle id="up_47" type="Car" route="up" departSpeed="desired" depart="55" />
    <vehicle id="right_48" type="Car" route="right" departSpeed="desired" depart="57" />
    <vehicle id="right_49" type="Car" route="right" departSpeed="desired" depart="58" />
    <vehicle id="down_50" type="Car" route="down" departSpeed="desired" depart="59" />
    <vehicle id="left_51" type="Car" route="left" departSpeed="desired" depart="59" />
    <vehicle id="down_52" type="Car" route="down" departSpeed="desired" depart="61" />
    <vehicle id="right_53" type="Car" route="right" departSpeed="desired" depart="63" />
    <vehicle id="down_54" type="Car" route="down" departSpeed="desired" depart="64" />
    <vehicle id="down_55" type="Car" route="down" departSpeed="desired" depart="67" />
    <vehicle id="down_56" type="Car" route="down" departSpeed="desired" depart="69" />
    <vehicle id="right_57" type="Car" route="right" departSpeed="desired" depart="71" />
    <vehicle id="down_58" type="Car" route="down" departSpeed="desired" depart="71" />
    <vehicle id="right_59" type="Car" route="right" departSpeed="desired" depart="74" />
    <vehicle id="right_60" type="Car" route="right" departSpeed="desired" depart="77" />
    <vehicle id="up_61" type="Car" route="up" departSpeed="desired" depart="78" />
    <vehicle id="right_62" type="Car" route="right" departSpeed="desired" depart="81" />
    <vehicle id="left_63" type="Car" route="left" departSpeed="desired" depart="82" />
    <vehicle id="down_64" type="Car" route="down" departSpeed="desired" depart="84" />
    <vehicle id="right_65" type="Car" route="right" departSpeed="desired" depart="85" />
    <vehicle id="right_66" type="Car" route="right" departSpeed="desired" depart="87" />
    <vehicle id="down_67" type="Car" route="down" departSpeed="desired" depart="87" />
    <vehicle id="left_68" type="Car" route="left" departSpeed="desired" depart="87" />
    <vehicle id="down_69" type="Car" route="down" departSpeed="desired" depart="88" />
    <vehicle id="down_70" type="Car" route="down" departSpeed="desired" depart="89" />
    <vehicle id="down_71" type="Car" route="down" departSpeed="desired" depart="90" />
    <vehicle id="left_72" type="Car" route="left" departSpeed="desired" depart="90" />
    <vehicle id="down_73" type="Car" route="down" departSpeed="desired" depart="95" />
    <vehicle id="up_74" type="Car" route="up" departSpeed="desired" depart="96" />
    <vehicle id="up_75" type="Car" route="up" departSpeed="desired" depart="98" />
    <vehicle id="down_76" type="Car" route="down" departSpeed="desired" depart="99" />
    <vehicle id="right_77" type="Car" route="right" departSpeed="desired" depart="101" />
    <vehicle id="right_78" type="Car" route="right" departSpeed="desired" depart="103" />
    <vehicle id="up_79" type="Car" route="up" departSpeed="desired" depart="103" />
    <vehicle id="down_80" type="Car" route="down" departSpeed="desired" depart="104" />
    <vehicle id="right_81" type="Car" route="right" departSpeed="desired" depart="105" />
    <vehicle id="up_82" type="Car" route="up" departSpeed="desired" depart="105" />
    <vehicle id="down_83" type="Car" route="down" departSpeed="desired" depart="106" />
    <vehicle id="down_84" type="Car" route="down" departSpeed="desired" depart="108" />
    <vehicle id="left_85" type="Car" route="left" departSpeed="desired" depart="110" />
    <vehicle id="right_86" type="Car" route="right" departSpeed="desired" depart="111" />
    <vehicle id="down_87" type="Car" route="down" departSpeed="desired" depart="112" />
    <vehicle id="left_88" type="Car" route="left" departSpeed="desired" depart="113" />
    <vehicle id="right_89" type="Car" route="right" departSpeed="desired" depart="115" />
    <vehicle id="right_90" type="Car" route="right" departSpeed="desired" depart="119" />
    <vehicle id="right_91" type="Car" route="right" departSpeed="desired" depart="123" />
    <vehicle id="down_92" type="Car" route="down" departSpeed="desired" depart="123" />
    <vehicle id="right_93" type="Car" route="right" departSpeed="desired" depart="124" />
    <vehicle id="down_94" type="Car" route="down" departSpeed="desired" depart="124" />
    <vehicle id="left_95" type="Car" route="left" departSpeed="desired" depart="125" />
    <vehicle id="right_96" type="Car" route="right" departSpeed="desired" depart="126" />
    <vehicle id="left_97" type="Car" route="left" departSpeed="desired" depart="127" />
    <vehicle id="right_98" type="Car" route="right" departSpeed="desired" depart="131" />
    <vehicle id="right_99" type="Car" route="right" departSpeed="desired" depart="132" />
    <vehicle id="down_100" type="Car" route="down" departSpeed="desired" depart="133" />
    <vehicle id="right_101" type="Car" route="right" departSpeed="desired" depart="134" />
    <vehicle id="down_102" type="Car" route="down" departSpeed="desired" depart="135" />
    <vehicle id="right_103" type="Car" route="right" departSpeed="desired" depart="137" />
    <vehicle id="right_104" type="Car" route="right" departSpeed="desired" depart="138" />
    <vehicle id="down_105" type="Car" route="down" departSpeed="desired" depart="138" />
    <vehicle id="down_106" type="Car" route="down" departSpeed="desired" depart="139" />
    <vehicle id="right_107" type="Car" route="right" departSpeed="desired" depart="140" />
    <vehicle id="down_108" type="Car" route="down" departSpeed="desired" depart="143" />
    <vehicle id="up_109" type="Car" route="up" departSpeed="desired" depart="143" />
    <vehicle id="down_110" type="Car" route="down" departSpeed="desired" depart="148" />
    <vehicle id="right_111" type="Car" route="right" departSpeed="desired" depart="151" />
    <vehicle id="right_112" type="Car" route="right" departSpeed="desired" depart="152" />
    <vehicle id="left_113" type="Car" route="left" departSpeed="desired" depart="153" />
    <vehicle id="left_114" type="Car" route="left" departSpeed="desired" depart="155" />
    <vehicle id="right_115" type="Car" route="right" departSpeed="desired" depart="162" />
    <vehicle id="right_116" type="Car" route="right" departSpeed="desired" depart="163" />
    <vehicle id="up_117" type="Car" route="up" departSpeed="desired" depart="164" />
    <vehicle id="down_118" type="Car" route="down" departSpeed="desired" depart="165" />
    <vehicle id="right_119" type="Car" route="right" departSpeed="desired" depart="167" />
    <vehicle id="down_120" type="Car" route="down" departSpeed="desired" depart="171" />
    <vehicle id="right_121" type="Car" route="right" departSpeed="desired" depart="174" />
    <vehicle id="right_122" type="Car" route="right" departSpeed="desired" depart="176" />
    <vehicle id="right_123" type="Car" route="right" departSpeed="desired" depart="182" />
    <vehicle id="up_124" type="Car" route="up" departSpeed="desired" depart="183" />
    <vehicle id="left_125" type="Car" route="left" departSpeed="desired" depart="184" />
    <vehicle id="left_126" type="Car" route="left" departSpeed="desired" depart="186" />
    <vehicle id="down_127" type="Car" route="down" departSpeed="desired" depart="187" />
    <vehicle id="up_128" type="Car" route="up" departSpeed="desired" depart="188" />
    <vehicle id="down_129" type="Car" route="down" departSpeed="desired" depart="189" />
    <vehicle id="right_130" type="Car" route="right" departSpeed="desired" depart="191" />
    <vehicle id="down_131" type="Car" route="down" departSpeed="desired" depart="194" />
    <vehicle id="down_132" type="Car" route="down" departSpeed="desired" depart="199" />
    <vehicle id="right_133" type="Car" route="right" departSpeed="desired" depart="200" />
    <vehicle id="down_134" type="Car" route="down" departSpeed="desired" depart="203" />
    <vehicle id="down_135" type="Car" route="down" departSpeed="desired" depart="205" />
    <vehicle id="right_136" type="Car" route="right" departSpeed="desired" depart="207" />
    <vehicle id="down_137" type="Car" route="down" departSpeed="desired" depart="207" />
    <vehicle id="right_138" type="Car" route="right" departSpeed="desired" depart="208" />
    <vehicle id="down_139" type="Car" route="down" departSpeed="desired" depart="209" />
    <vehicle id="right_140" type="Car" route="right" departSpeed="desired" depart="210" />
    <vehicle id="down_141" type="Car" route="down" departSpeed="desired" depart="210" />
    <vehicle id="down_142" type="Car" route="down" departSpeed="desired" depart="212" />
    <vehicle id="right_143" type="Car" route="right" departSpeed="desired" depart="213" />
    <vehicle id="right_144" type="Car" route="right" departSpeed="desired" depart="214" />
    <vehicle id="down_145" type="Car" route="down" departSpeed="desired" depart="215" />
    <vehicle id="left_146" type="Car" route="left" departSpeed="desired" depart="216" />
    <vehicle id="right_147" type="Car" route="right" departSpeed="desired" depart="217" />
    <vehicle id="up_148" type="Car" route="up" departSpeed="desired" depart="217" />
    <vehicle id="right_149" type="Car" route="right" departSpeed="desired" depart="218" />
    <vehicle id="right_150" type="Car" route="right" departSpeed="desired" depart="219" />
    <vehicle id="down_151" type="Car" route="down" departSpeed="desired" depart="219" />
    <vehicle id="down_152" type="Car" route="down" departSpeed="desired" depart="220" />
    <vehicle id="down_153" type="Car" route="down" departSpeed="desired" depart="221" />
    <vehicle id="right_154" type="Car" route="right" departSpeed="desired" depart="223" />
    <vehicle id="up_155" type="Car" route="up" departSpeed="desired" depart="223" />
    <vehicle id="left_156" type="Car" route="left" departSpeed="desired" depart="224" />
    <vehicle id="right_157" type="Car" route="right" departSpeed="desired" depart="226" />
    <vehicle id="up_158" type="Car" route="up" departSpeed="desired" depart="226" />
    <vehicle id="up_159" type="Car" route="up" departSpeed="desired" depart="228" />
    <vehicle id="down_160" type="Car" route="down" departSpeed="desired" depart="230" />
    <vehicle id="right_161" type="Car" route="right" departSpeed="desired" depart="231" />
    <vehicle id="down_162" type="Car" route="down" departSpeed="desired" depart="232" />
    <vehicle id="up_163" type="Car" route="up" departSpeed="desired" depart="232" />
    <vehicle id="down_164" type="Car" route="down" departSpeed="desired" depart="234" />
    <vehicle id="right_165" type="Car" route="right" departSpeed="desired" depart="237" />
    <vehicle id="left_166" type="Car" route="left" departSpeed="desired" depart="239" />
    <vehicle id="up_167" type="Car" route="up" departSpeed="desired" depart="241" />
    <vehicle id="down_168" type="Car" route="down" departSpeed="desired" depart="242" />
    <vehicle id="up_169" type="Car" route="up" departSpeed="desired" depart="242" />
    <vehicle id="up_170" type="Car" route="up" departSpeed="desired" depart="244" />
    <vehicle id="right_171" type="Car" route="right" departSpeed="desired" depart="247" />
    <vehicle id="down_172" type="Car" route="down" departSpeed="desired" depart="248" />
    <vehicle id="left_173" type="Car" route="left" departSpeed="desired" depart="248" />
    <vehicle id="right_174" type="Car" route="right" departSpeed="desired" depart="249" />
    <vehicle id="left_175" type="Car" route="left" departSpeed="desired" depart="249" />
    <vehicle id="right_176" type="Car" route="right" departSpeed="desired" depart="250" />
    <vehicle id="down_177" type="Car" route="down" departSpeed="desired" depart="251" />
    <vehicle id="up_178" type="Car" route="up" departSpeed="desired" depart="251" />
    <vehicle id="down_179" type="Car" route="down" departSpeed="desired" depart="253" />
    <vehicle id="left_180" type="Car" route="left" departSpeed="desired" depart="254" />
    <vehicle id="right_181" type="Car" route="right" departSpeed="desired" depart="255" />
    <vehicle id="right_182" type="Car" route="right" departSpeed="desired" depart="257" />
    <vehicle id="right_183" type="Car" route="right" departSpeed="desired" depart="259" />
    <vehicle id="right_184" type="Car" route="right" departSpeed="desired" depart="263" />
    <vehicle id="left_185" type="Car" route="left" departSpeed="desired" depart="263" />
    <vehicle id="up_186" type="Car" route="up" departSpeed="desired" depart="264" />
    <vehicle id="left_187" type="Car" route="left" departSpeed="desired" depart="264" />
    <vehicle id="right_188" type="Car" route="right" departSpeed="desired" depart="268" />
    <vehicle id="down_189" type="Car" route="down" departSpeed="desired" depart="268" />
    <vehicle id="down_190" type="Car" route="down" departSpeed="desired" depart="269" />
    <vehicle id="down_191" type="Car" route="down" departSpeed="desired" depart="270" />
    <vehicle id="right_192" type="Car" route="right" departSpeed="desired" depart="272" />
    <vehicle id="down_193" type="Car" route="down" departSpeed="desired" depart="274" />
    <vehicle id="right_194" type="Car" route="right" departSpeed="desired" depart="279" />
    <vehicle id="right_195" type="Car" route="right" departSpeed="desired" depart="280" />
    <vehicle id="up_196" type="Car" route="up" departSpeed="desired" depart="281" />
    <vehicle id="right_197" type="Car" route="right" departSpeed="desired" depart="282" />
    <vehicle id="down_198" type="Car" route="down" departSpeed="desired" depart="282" />
    <vehicle id="right_199" type="Car" route="right" departSpeed="desired" depart="283" />
    <vehicle id="right_200" type="Car" route="right" departSpeed="desired" depart="290" />
    <vehicle id="down_201" type="Car" route="down" departSpeed="desired" depart="292" />
    <vehicle id="left_202" type="Car" route="left" departSpeed="desired" depart="292" />
    <vehicle id="down_203" type="Car" route="down" departSpeed="desired" depart="293" />
    <vehicle id="left_204" type="Car" route="left" departSpeed="desired" depart="293" />
    <vehicle id="up_205" type="Car" route="up" departSpeed="desired" depart="296" />
    <vehicle id="right_206" type="Car" route="right" departSpeed="desired" depart="298" />
    <vehicle id="up_207" type="Car" route="up" departSpeed="desired" depart="298" />
    <vehicle id="down_208" type="Car" route="down" departSpeed="desired" depart="299" />
    <vehicle id="left_209" type="Car" route="left" departSpeed="desired" depart="299" />
    <vehicle id="right_210" type="Car" route="right" departSpeed="desired" depart="300" />
    <vehicle id="up_211" type="Car" route="up" departSpeed="desired" depart="301" />
    <vehicle id="left_212" type="Car" route="left" departSpeed="desired" depart="301" />
    <vehicle id="right_213" type="Car" route="right" departSpeed="desired" depart="304" />
    <vehicle id="left_214" type="Car" route="left" departSpeed="desired" depart="305" />
    <vehicle id="down_215" type="Car" route="down" departSpeed="desired" depart="306" />
    <vehicle id="up_216" type="Car" route="up" departSpeed="desired" depart="307" />
    <vehicle id="down_217" type="Car" route="down" departSpeed="desired" depart="308" />
    <vehicle id="up_218" type="Car" route="up" departSpeed="desired" depart="308" />
    <vehicle id="right_219" type="Car" route="right" departSpeed="desired" depart="310" />
    <vehicle id="right_220" type="Car" route="right" departSpeed="desired" depart="311" />
    <vehicle id="right_221" type="Car" route="right" departSpeed="desired" depart="314" />
    <vehicle id="right_222" type="Car" route="right" departSpeed="desired" depart="315" />
    <vehicle id="up_223" type="Car" route="up" departSpeed="desired" depart="316" />
    <vehicle id="right_224" type="Car" route="right" departSpeed="desired" depart="318" />
    <vehicle id="down_225" type="Car" route="down" departSpeed="desired" depart="319" />
    <vehicle id="left_226" type="Car" route="left" departSpeed="desired" depart="319" />
    <vehicle id="down_227" type="Car" route="down" departSpeed="desired" depart="323" />
    <vehicle id="down_228" type="Car" route="down" departSpeed="desired" depart="326" />
    <vehicle id="down_229" type="Car" route="down" departSpeed="desired" depart="327" />
    <vehicle id="down_230" type="Car" route="down" departSpeed="desired" depart="328" />
    <vehicle id="down_231" type="Car" route="down" departSpeed="desired" depart="330" />
    <vehicle id="right_232" type="Car" route="right" departSpeed="desired" depart="331" />
    <vehicle id="down_233" type="Car" route="down" departSpeed="desired" depart="332" />
    <vehicle id="left_234" type="Car" route="left" departSpeed="desired" depart="333" />
    <vehicle id="left_235" type="Car" route="left" departSpeed="desired" depart="336" />
    <vehicle id="right_236" type="Car" route="right" departSpeed="desired" depart="337" />
    <vehicle id="right_237" type="Car" route="right" departSpeed="desired" depart="341" />
    <vehicle id="up_238" type="Car" route="up" departSpeed="desired" depart="342" />
    <vehicle id="down_239" type="Car" route="down" departSpeed="desired" depart="346" />
    <vehicle id="right_240" type="Car" route="right" departSpeed="desired" depart="347" />
    <vehicle id="right_241" type="Car" route="right" departSpeed="desired" depart="350" />
    <vehicle id="right_242" type="Car" route="right" departSpeed="desired" depart="351" />
    <vehicle id="down_243" type="Car" route="down" departSpeed="desired" depart="351" />
    <vehicle id="down_244" type="Car" route="down" departSpeed="desired" depart="353" />
    <vehicle id="right_245" type="Car" route="right" departSpeed="desired" depart="354" />
    <vehicle id="down_246" type="Car" route="down" departSpeed="desired" depart="354" />
    <vehicle id="right_247" type="Car" route="right" departSpeed="desired" depart="358" />
    <vehicle id="down_248" type="Car" route="down" departSpeed="desired" depart="359" />
    <vehicle id="up_249" type="Car" route="up" departSpeed="desired" depart="361" />
    <vehicle id="left_250" type="Car" route="left" departSpeed="desired" depart="367" />
    <vehicle id="right_251" type="Car" route="right" departSpeed="desired" depart="371" />
    <vehicle id="down_252" type="Car" route="down" departSpeed="desired" depart="371" />
    <vehicle id="up_253" type="Car" route="up" departSpeed="desired" depart="373" />
    <vehicle id="right_254" type="Car" route="right" departSpeed="desired" depart="375" />
    <vehicle id="right_255" type="Car" route="right" departSpeed="desired" depart="377" />
    <vehicle id="down_256" type="Car" route="down" departSpeed="desired" depart="380" />
    <vehicle id="down_257" type="Car" route="down" departSpeed="desired" depart="385" />
    <vehicle id="right_258" type="Car" route="right" departSpeed="desired" depart="386" />
    <vehicle id="right_259" type="Car" route="right" departSpeed="desired" depart="387" />
    <vehicle id="left_260" type="Car" route="left" departSpeed="desired" depart="389" />
    <vehicle id="right_261" type="Car" route="right" departSpeed="desired" depart="391" />
    <vehicle id="down_262" type="Car" route="down" departSpeed="desired" depart="391" />
    <vehicle id="down_263" type="Car" route="down" departSpeed="desired" depart="393" />
    <vehicle id="right_264" type="Car" route="right" departSpeed="desired" depart="396" />
    <vehicle id="right_265" type="Car" route="right" departSpeed="desired" depart="398" />
    <vehicle id="right_266" type="Car" route="right" departSpeed="desired" depart="399" />
    <vehicle id="down_267" type="Car" route="down" departSpeed="desired" depart="399" />
    <vehicle id="down_268" type="Car" route="down" departSpeed="desired" depart="400" />
    <vehicle id="down_269" type="Car" route="down" departSpeed="desired" depart="401" />
    <vehicle id="left_270" type="Car" route="left" departSpeed="desired" depart="401" />
    <vehicle id="right_271" type="Car" route="right" departSpeed="desired" depart="405" />
    <vehicle id="right_272" type="Car" route="right" departSpeed="desired" depart="407" />
    <vehicle id="up_273" type="Car" route="up" departSpeed="desired" depart="407" />
    <vehicle id="right_274" type="Car" route="right" departSpeed="desired" depart="408" />
    <vehicle id="down_275" type="Car" route="down" departSpeed="desired" depart="408" />
    <vehicle id="right_276" type="Car" route="right" departSpeed="desired" depart="409" />
    <vehicle id="down_277" type="Car" route="down" departSpeed="desired" depart="410" />
    <vehicle id="up_278" type="Car" route="up" departSpeed="desired" depart="411" />
    <vehicle id="down_279" type="Car" route="down" departSpeed="desired" depart="413" />
    <vehicle id="up_280" type="Car" route="up" departSpeed="desired" depart="413" />
    <vehicle id="right_281" type="Car" route="right" departSpeed="desired" depart="414" />
    <vehicle id="down_282" type="Car" route="down" departSpeed="desired" depart="414" />
    <vehicle id="down_283" type="Car" route="down" departSpeed="desired" depart="418" />
    <vehicle id="right_284" type="Car" route="right" departSpeed="desired" depart="419" />
    <vehicle id="down_285" type="Car" route="down" departSpeed="desired" depart="419" />
    <vehicle id="right_286" type="Car" route="right" departSpeed="desired" depart="423" />
    <vehicle id="down_287" type="Car" route="down" departSpeed="desired" depart="423" />
    <vehicle id="right_288" type="Car" route="right" departSpeed="desired" depart="424" />
    <vehicle id="down_289" type="Car" route="down" departSpeed="desired" depart="425" />
    <vehicle id="right_290" type="Car" route="right" departSpeed="desired" depart="428" />
    <vehicle id="down_291" type="Car" route="down" departSpeed="desired" depart="428" />
    <vehicle id="down_292" type="Car" route="down" departSpeed="desired" depart="431" />
    <vehicle id="right_293" type="Car" route="right" departSpeed="desired" depart="434" />
    <vehicle id="down_294" type="Car" route="down" departSpeed="desired" depart="434" />
    <vehicle id="right_295" type="Car" route="right" departSpeed="desired" depart="435" />
    <vehicle id="down_296" type="Car" route="down" departSpeed="desired" depart="435" />
    <vehicle id="down_297" type="Car" route="down" departSpeed="desired" depart="436" />
    <vehicle id="right_298" type="Car" route="right" departSpeed="desired" depart="438" />
    <vehicle id="down_299" type="Car" route="down" departSpeed="desired" depart="439" />
    <vehicle id="right_300" type="Car" route="right" departSpeed="desired" depart="442" />
    <vehicle id="right_301" type="Car" route="right" departSpeed="desired" depart="444" />
    <vehicle id="right_302" type="Car" route="right" departSpeed="desired" depart="445" />
    <vehicle id="down_303" type="Car" route="down" departSpeed="desired" depart="448" />
    <vehicle id="up_304" type="Car" route="up" departSpeed="desired" depart="449" />
    <vehicle id="down_305" type="Car" route="down" departSpeed="desired" depart="451" />
    <vehicle id="up_306" type="Car" route="up" departSpeed="desired" depart="451" />
    <vehicle id="down_307" type="Car" route="down" departSpeed="desired" depart="453" />
    <vehicle id="up_308" type="Car" route="up" departSpeed="desired" depart="453" />
    <vehicle id="down_309" type="Car" route="down" departSpeed="desired" depart="454" />
    <vehicle id="down_310" type="Car" route="down" departSpeed="desired" depart="455" />
    <vehicle id="right_311" type="Car" route="right" departSpeed="desired" depart="458" />
    <vehicle id="down_312" type="Car" route="down" departSpeed="desired" depart="459" />
    <vehicle id="left_313" type="Car" route="left" departSpeed="desired" depart="459" />
    <vehicle id="right_314" type="Car" route="right" departSpeed="desired" depart="460" />
    <vehicle id="down_315" type="Car" route="down" departSpeed="desired" depart="461" />
    <vehicle id="up_316" type="Car" route="up" departSpeed="desired" depart="461" />
    <vehicle id="up_317" type="Car" route="up" departSpeed="desired" depart="462" />
    <vehicle id="up_318" type="Car" route="up" departSpeed="desired" depart="463" />
    <vehicle id="down_319" type="Car" route="down" departSpeed="desired" depart="465" />
    <vehicle id="right_320" type="Car" route="right" departSpeed="desired" depart="467" />
    <vehicle id="right_321" type="Car" route="right" departSpeed="desired" depart="468" />
    <vehicle id="left_322" type="Car" route="left" departSpeed="desired" depart="469" />
    <vehicle id="left_323" type="Car" route="left" departSpeed="desired" depart="471" />
    <vehicle id="up_324" type="Car" route="up" departSpeed="desired" depart="472" />
    <vehicle id="right_325" type="Car" route="right" departSpeed="desired" depart="474" />
    <vehicle id="right_326" type="Car" route="right" departSpeed="desired" depart="475" />
    <vehicle id="left_327" type="Car" route="left" departSpeed="desired" depart="475" />
    <vehicle id="right_328" type="Car" route="right" departSpeed="desired" depart="476" />
    <vehicle id="down_329" type="Car" route="down" departSpeed="desired" depart="477" />
    <vehicle id="down_330" type="Car" route="down" departSpeed="desired" depart="478" />
    <vehicle id="down_331" type="Car" route="down" departSpeed="desired" depart="479" />
    <vehicle id="right_332" type="Car" route="right" departSpeed="desired" depart="480" />
    <vehicle id="down_333" type="Car" route="down" departSpeed="desired" depart="480" />