<routes>
      <vType id="Car" length="5.00" minGap="2.50" maxSpeed="16.67" guiShape="passenger" carFollowModel="IDM" accel="0.8" decel="4.5" tau="1.0"/>
            
    <route id="right1"  edges="1to2 2to3 outr1" />
    <route id="left1"  edges="8to7 7to6 outl1" />
    <route id="down1"  edges="9to2 2to6 outs1" />
    <route id="up1"  edges="12to7 7to3 outn1" />
    <vehicle id="up1_0" type="Car" color="yellow" route="up1" departSpeed="desired" depart="0" />
    <vehicle id="right1_1" type="Car" color="yellow" route="right1" departSpeed="desired" depart="2" />
    <vehicle id="down1_2" type="Car" color="yellow" route="down1" departSpeed="desired" depart="3" />
    <vehicle id="right1_3" type="Car" color="yellow" route="right1" departSpeed="desired" depart="8" />
    <vehicle id="left1_4" type="Car" color="yellow" route="left1" departSpeed="desired" depart="8" />
    <vehicle id="right1_5" type="Car" color="yellow" route="right1" departSpeed="desired" depart="9" />
    <vehicle id="left1_6" type="Car" color="yellow" route="left1" departSpeed="desired" depart="9" />
    <vehicle id="up1_7" type="Car" color="yellow" route="up1" departSpeed="desired" depart="12" />
    <vehicle id="left1_8" type="Car" color="yellow" route="left1" departSpeed="desired" depart="15" />
    <vehicle id="right1_9" type="Car" color="yellow" route="right1" departSpeed="desired" depart="16" />
    <vehicle id="down1_10" type="Car" color="yellow" route="down1" departSpeed="desired" depart="17" />
    <vehicle id="left1_11" type="Car" color="yellow" route="left1" departSpeed="desired" depart="21" />
    <vehicle id="down1_12" type="Car" color="yellow" route="down1" departSpeed="desired" depart="22" />
    <vehicle id="up1_13" type="Car" color="yellow" route="up1" departSpeed="desired" depart="22" />
    <vehicle id="down1_14" type="Car" color="yellow" route="down1" departSpeed="desired" depart="28" />
    <vehicle id="right1_15" type="Car" color="yellow" route="right1" departSpeed="desired" depart="30" />
    <vehicle id="left1_16" type="Car" color="yellow" route="left1" departSpeed="desired" depart="33" />
    <vehicle id="right1_17" type="Car" color="yellow" route="right1" departSpeed="desired" depart="34" />
    <vehicle id="left1_18" type="Car" color="yellow" route="left1" departSpeed="desired" depart="37" />
    <vehicle id="left1_19" type="Car" color="yellow" route="left1" departSpeed="desired" depart="38" />
    <vehicle id="up1_20" type="Car" color="yellow" route="up1" departSpeed="desired" depart="39" />
    <vehicle id="right1_21" type="Car" color="yellow" route="right1" departSpeed="desired" depart="46" />
    <vehicle id="right1_22" type="Car" color="yellow" route="right1" departSpeed="desired" depart="48" />
    <vehicle id="right1_23" type="Car" color="yellow" route="right1" departSpeed="desired" depart="54" />
    <vehicle id="left1_24" type="Car" color="yellow" route="left1" departSpeed="desired" depart="55" />
    <vehicle id="down1_25" type="Car" color="yellow" route="down1" departSpeed="desired" depart="57" />
    <vehicle id="up1_26" type="Car" color="yellow" route="up1" departSpeed="desired" depart="65" />
    <vehicle id="up1_27" type="Car" color="yellow" route="up1" departSpeed="desired" depart="68" />
    <vehicle id="up1_28" type="Car" color="yellow" route="up1" departSpeed="desired" depart="71" />
    <vehicle id="right1_29" type="Car" color="yellow" route="right1" departSpeed="desired" depart="77" />
    <vehicle id="up1_30" type="Car" color="yellow" route="up1" departSpeed="desired" depart="79" />
    <vehicle id="left1_31" type="Car" color="yellow" route="left1" departSpeed="desired" depart="79" />
    <vehicle id="up1_32" type="Car" color="yellow" route="up1" departSpeed="desired" depart="80" />
    <vehicle id="left1_33" type="Car" color="yellow" route="left1" departSpeed="desired" depart="81" />
    <vehicle id="left1_34" type="Car" color="yellow" route="left1" departSpeed="desired" depart="82" />
    <vehicle id="left1_35" type="Car" color="yellow" route="left1" departSpeed="desired" depart="86" />
    <vehicle id="right1_36" type="Car" color="yellow" route="right1" departSpeed="desired" depart="89" />
    <vehicle id="left1_37" type="Car" color="yellow" route="left1" departSpeed="desired" depart="92" />
    <vehicle id="up1_38" type="Car" color="yellow" route="up1" departSpeed="desired" depart="95" />
    <vehicle id="left1_39" type="Car" color="yellow" route="left1" departSpeed="desired" depart="97" />
    <vehicle id="right1_40" type="Car" color="yellow" route="right1" departSpeed="desired" depart="100" />
    <vehicle id="down1_41" type="Car" color="yellow" route="down1" departSpeed="desired" depart="102" />
    <vehicle id="up1_42" type="Car" color="yellow" route="up1" departSpeed="desired" depart="104" />
    <vehicle id="left1_43" type="Car" color="yellow" route="left1" departSpeed="desired" depart="108" />
    <vehicle id="right1_44" type="Car" color="yellow" route="right1" departSpeed="desired" depart="115" />
    <vehicle id="right1_45" type="Car" color="yellow" route="right1" departSpeed="desired" depart="124" />
    <vehicle id="left1_46" type="Car" color="yellow" route="left1" departSpeed="desired" depart="126" />
    <vehicle id="right1_47" type="Car" color="yellow" route="right1" departSpeed="desired" depart="129" />
    <vehicle id="left1_48" type="Car" color="yellow" route="left1" departSpeed="desired" depart="131" />
    <vehicle id="up1_49" type="Car" color="yellow" route="up1" departSpeed="desired" depart="137" />
    <vehicle id="up1_50" type="Car" color="yellow" route="up1" departSpeed="desired" depart="138" />
    <vehicle id="left1_51" type="Car" color="yellow" route="left1" departSpeed="desired" depart="138" />
    <vehicle id="down1_52" type="Car" color="yellow" route="down1" departSpeed="desired" depart="148" />
    <vehicle id="down1_53" type="Car" color="yellow" route="down1" departSpeed="desired" depart="149" />
    <vehicle id="left1_54" type="Car" color="yellow" route="left1" departSpeed="desired" depart="149" />
    <vehicle id="left1_55" type="Car" color="yellow" route="left1" departSpeed="desired" depart="156" />
    <vehicle id="down1_56" type="Car" color="yellow" route="down1" departSpeed="desired" depart="158" />
    <vehicle id="right1_57" type="Car" color="yellow" route="right1" departSpeed="desired" depart="164" />
    <vehicle id="up1_58" type="Car" color="yellow" route="up1" departSpeed="desired" depart="169" />
    <vehicle id="up1_59" type="Car" color="yellow" route="up1" departSpeed="desired" depart="171" />
    <vehicle id="right1_60" type="Car" color="yellow" route="right1" departSpeed="desired" depart="175" />
    <vehicle id="up1_61" type="Car" color="yellow" route="up1" departSpeed="desired" depart="177" />
    <vehicle id="left1_62" type="Car" color="yellow" route="left1" departSpeed="desired" depart="177" />
    <vehicle id="left1_63" type="Car" color="yellow" route="left1" departSpeed="desired" depart="178" />
    <vehicle id="down1_64" type="Car" color="yellow" route="down1" departSpeed="desired" depart="185" />
    <vehicle id="down1_65" type="Car" color="yellow" route="down1" departSpeed="desired" depart="188" />
    <vehicle id="left1_66" type="Car" color="yellow" route="left1" departSpeed="desired" depart="189" />
    <vehicle id="up1_67" type="Car" color="yellow" route="up1" departSpeed="desired" depart="200" />
    <vehicle id="right1_68" type="Car" color="yellow" route="right1" departSpeed="desired" depart="207" />
    <vehicle id="left1_69" type="Car" color="yellow" route="left1" departSpeed="desired" depart="210" />
    <vehicle id="down1_70" type="Car" color="yellow" route="down1" departSpeed="desired" depart="216" />
    <vehicle id="down1_71" type="Car" color="yellow" route="down1" departSpeed="desired" depart="217" />
    <vehicle id="left1_72" type="Car" color="yellow" route="left1" departSpeed="desired" depart="218" />
    <vehicle id="right1_73" type="Car" color="yellow" route="right1" departSpeed="desired" depart="219" />
    <vehicle id="up1_74" type="Car" color="yellow" route="up1" departSpeed="desired" depart="219" />
    <vehicle id="down1_75" type="Car" color="yellow" route="down1" departSpeed="desired" depart="221" />
    <vehicle id="right1_76" type="Car" color="yellow" route="right1" departSpeed="desired" depart="222" />
    <vehicle id="down1_77" type="Car" color="yellow" route="down1" departSpeed="desired" depart="226" />
    <vehicle id="up1_78" type="Car" color="yellow" route="up1" departSpeed="desired" depart="227" />
    <vehicle id="down1_79" type="Car" color="yellow" route="down1" departSpeed="desired" depart="231" />
    <vehicle id="left1_80" type="Car" color="yellow" route="left1" departSpeed="desired" depart="233" />
    <vehicle id="right1_81" type="Car" color="yellow" route="right1" departSpeed="desired" depart="235" />
    <vehicle id="left1_82" type="Car" color="yellow" route="left1" departSpeed="desired" depart="241" />
    <vehicle id="down1_83" type="Car" color="yellow" route="down1" departSpeed="desired" depart="243" />
    <vehicle id="left1_84" type="Car" color="yellow" route="left1" departSpeed="desired" depart="246" />
    <vehicle id="right1_85" type="Car" color="yellow" route="right1" departSpeed="desired" depart="250" />
    <vehicle id="up1_86" type="Car" color="yellow" route="up1" departSpeed="desired" depart="253" />
    <vehicle id="down1_87" type="Car" color="yellow" route="down1" departSpeed="desired" depart="254" />
    <vehicle id="left1_88" type="Car" color="yellow" route="left1" departSpeed="desired" depart="255" />
    <vehicle id="down1_89" type="Car" color="yellow" route="down1" departSpeed="desired" depart="257" />
    <vehicle id="left1_90" type="Car" color="yellow" route="left1" departSpeed="desired" depart="262" />
    <vehicle id="right1_91" type="Car" color="yellow" route="right1" departSpeed="desired" depart="269" />
    <vehicle id="down1_92" type="Car" color="yellow" route="down1" departSpeed="desired" depart="273" />
    <vehicle id="left1_93" type="Car" color="yellow" route="left1" departSpeed="desired" depart="273" />
    <vehicle id="up1_94" type="Car" color="yellow" route="up1" departSpeed="desired" depart="278" />
    <vehicle id="right1_95" type="Car" color="yellow" route="right1" departSpeed="desired" depart="279" />
    <vehicle id="right1_96" type="Car" color="yellow" route="right1" departSpeed="desired" depart="285" />
    <vehicle id="left1_97" type="Car" color="yellow" route="left1" departSpeed="desired" depart="285" />
    <vehicle id="down1_98" type="Car" color="yellow" route="down1" departSpeed="desired" depart="286" />
    <vehicle id="down1_99" type="Car" color="yellow" route="down1" departSpeed="desired" depart="287" />
    <vehicle id="up1_100" type="Car" color="yellow" route="up1" departSpeed="desired" depart="288" />
    <vehicle id="up1_101" type="Car" color="yellow" route="up1" departSpeed="desired" depart="290" />
    <vehicle id="up1_102" type="Car" color="yellow" route="up1" departSpeed="desired" depart="291" />
    <vehicle id="right1_103" type="Car" color="yellow" route="right1" departSpeed="desired" depart="294" />
    <vehicle id="right1_104" type="Car" color="yellow" route="right1" departSpeed="desired" depart="295" />
    <vehicle id="down1_105" type="Car" color="yellow" route="down1" departSpeed="desired" depart="299" />
    <vehicle id="left1_106" type="Car" color="yellow" route="left1" departSpeed="desired" depart="299" />
    <vehicle id="right1_107" type="Car" color="yellow" route="right1" departSpeed="desired" depart="301" />
    <vehicle id="left1_108" type="Car" color="yellow" route="left1" departSpeed="desired" depart="302" />
    <vehicle id="right1_109" type="Car" color="yellow" route="right1" departSpeed="desired" depart="304" />
    <vehicle id="up1_110" type="Car" color="yellow" route="up1" departSpeed="desired" depart="306" />
    <vehicle id="up1_111" type="Car" color="yellow" route="up1" departSpeed="desired" depart="309" />
    <vehicle id="up1_112" type="Car" color="yellow" route="up1" departSpeed="desired" depart="314" />
    <vehicle id="right1_113" type="Car" color="yellow" route="right1" departSpeed="desired" depart="316" />
    <vehicle id="up1_114" type="Car" color="yellow" route="up1" departSpeed="desired" depart="316" />
    <vehicle id="left1_115" type="Car" color="yellow" route="left1" departSpeed="desired" depart="317" />
    <vehicle id="down1_116" type="Car" color="yellow" route="down1" departSpeed="desired" depart="319" />
    <vehicle id="up1_117" type="Car" color="yellow" route="up1" departSpeed="desired" depart="322" />
    <vehicle id="right1_118" type="Car" color="yellow" route="right1" departSpeed="desired" depart="324" />
    <vehicle id="up1_119" type="Car" color="yellow" route="up1" departSpeed="desired" depart="324" />
    <vehicle id="left1_120" type="Car" color="yellow" route="left1" departSpeed="desired" depart="324" />
    <vehicle id="right1_121" type="Car" color="yellow" route="right1" departSpeed="desired" depart="329" />
    <vehicle id="left1_122" type="Car" color="yellow" route="left1" departSpeed="desired" depart="331" />
    <vehicle id="left1_123" type="Car" color="yellow" route="left1" departSpeed="desired" depart="334" />
    <vehicle id="up1_124" type="Car" color="yellow" route="up1" departSpeed="desired" depart="341" />
    <vehicle id="down1_125" type="Car" color="yellow" route="down1" departSpeed="desired" depart="343" />
    <vehicle id="up1_126" type="Car" color="yellow" route="up1" departSpeed="desired" depart="343" />
    <vehicle id="right1_127" type="Car" color="yellow" route="right1" departSpeed="desired" depart="347" />
    <vehicle id="down1_128" type="Car" color="yellow" route="down1" departSpeed="desired" depart="348" />
    <vehicle id="up1_129" type="Car" color="yellow" route="up1" departSpeed="desired" depart="351" />
    <vehicle id="right1_130" type="Car" color="yellow" route="right1" departSpeed="desired" depart="357" />
    <vehicle id="down1_131" type="Car" color="yellow" route="down1" departSpeed="desired" depart="357" />
    <vehicle id="left1_132" type="Car" color="yellow" route="left1" departSpeed="desired" depart="358" />
    <vehicle id="right1_133" type="Car" color="yellow" route="right1" departSpeed="desired" depart="359" />
    <vehicle id="up1_134" type="Car" color="yellow" route="up1" departSpeed="desired" depart="365" />
    <vehicle id="down1_135" type="Car" color="yellow" route="down1" departSpeed="desired" depart="367" />
    <vehicle id="up1_136" type="Car" color="yellow" route="up1" departSpeed="desired" depart="368" />
    <vehicle id="down1_137" type="Car" color="yellow" route="down1" departSpeed="desired" depart="370" />
    <vehicle id="up1_138" type="Car" color="yellow" route="up1" departSpeed="desired" depart="372" />
    <vehicle id="right1_139" type="Car" color="yellow" route="right1" departSpeed="desired" depart="373" />
    <vehicle id="up1_140" type="Car" color="yellow" route="up1" departSpeed="desired" depart="374" />
    <vehicle id="right1_141" type="Car" color="yellow" route="right1" departSpeed="desired" depart="378" />
    <vehicle id="left1_142" type="Car" color="yellow" route="left1" departSpeed="desired" depart="379" />
    <vehicle id="left1_143" type="Car" color="yellow" route="left1" departSpeed="desired" depart="380" />
    <vehicle id="right1_144" type="Car" color="yellow" route="right1" departSpeed="desired" depart="381" />
    <vehicle id="down1_145" type="Car" color="yellow" route="down1" departSpeed="desired" depart="390" />
    <vehicle id="up1_146" type="Car" color="yellow" route="up1" departSpeed="desired" depart="394" />
    <vehicle id="up1_147" type="Car" color="yellow" route="up1" departSpeed="desired" depart="396" />
    <vehicle id="right1_148" type="Car" color="yellow" route="right1" departSpeed="desired" depart="398" />
    <vehicle id="right1_149" type="Car" color="yellow" route="right1" departSpeed="desired" depart="400" />
    <vehicle id="down1_150" type="Car" color="yellow" route="down1" departSpeed="desired" depart="401" />
    <vehicle id="right1_151" type="Car" color="yellow" route="right1" departSpeed="desired" depart="403" />
    <vehicle id="up1_152" type="Car" color="yellow" route="up1" departSpeed="desired" depart="404" />
    <vehicle id="right1_153" type="Car" color="yellow" route="right1" departSpeed="desired" depart="406" />
    <vehicle id="down1_154" type="Car" color="yellow" route="down1" departSpeed="desired" depart="412" />
    <vehicle id="up1_155" type="Car" color="yellow" route="up1" departSpeed="desired" depart="413" />
    <vehicle id="left1_156" type="Car" color="yellow" route="left1" departSpeed="desired" depart="415" />
    <vehicle id="down1_157" type="Car" color="yellow" route="down1" departSpeed="desired" depart="423" />
    <vehicle id="up1_158" type="Car" color="yellow" route="up1" departSpeed="desired" depart="424" />
    <vehicle id="left1_159" type="Car" color="yellow" route="left1" departSpeed="desired" depart="424" />
    <vehicle id="left1_160" type="Car" color="yellow" route="left1" departSpeed="desired" depart="426" />
    <vehicle id="right1_161" type="Car" color="yellow" route="right1" departSpeed="desired" depart="430" />
    <vehicle id="right1_162" type="Car" color="yellow" route="right1" departSpeed="desired" depart="432" />
    <vehicle id="up1_163" type="Car" color="yellow" route="up1" departSpeed="desired" depart="434" />
    <vehicle id="right1_164" type="Car" color="yellow" route="right1" departSpeed="desired" depart="435" />
    <vehicle id="down1_165" type="Car" color="yellow" route="down1" departSpeed="desired" depart="436" />
    <vehicle id="right1_166" type="Car" color="yellow" route="right1" departSpeed="desired" depart="439" />
    <vehicle id="up1_167" type="Car" color="yellow" route="up1" departSpeed="desired" depart="439" />
    <vehicle id="right1_168" type="Car" color="yellow" route="right1" departSpeed="desired" depart="444" />
    <vehicle id="up1_169" type="Car" color="yellow" route="up1" departSpeed="desired" depart="444" />
    <vehicle id="up1_170" type="Car" color="yellow" route="up1" departSpeed="desired" depart="450" />
    <vehicle id="left1_171" type="Car" color="yellow" route="left1" departSpeed="desired" depart="450" />
    <vehicle id="right1_172" type="Car" color="yellow" route="right1" departSpeed="desired" depart="454" />
    <vehicle id="down1_173" type="Car" color="yellow" route="down1" departSpeed="desired" depart="454" />
    <vehicle id="left1_174" type="Car" color="yellow" route="left1" departSpeed="desired" depart="455" />
    <vehicle id="down1_175" type="Car" color="yellow" route="down1" departSpeed="desired" depart="459" />
    <vehicle id="down1_176" type="Car" color="yellow" route="down1" departSpeed="desired" depart="460" />
    <vehicle id="right1_177" type="Car" color="yellow" route="right1" departSpeed="desired" depart="464" />
    <vehicle id="down1_178" type="Car" color="yellow" route="down1" departSpeed="desired" depart="467" />
    <vehicle id="left1_179" type="Car" color="yellow" route="left1" departSpeed="desired" depart="471" />
    <vehicle id="down1_180" type="Car" color="yellow" route="down1" departSpeed="desired" depart="473" />
    <vehicle id="left1_181" type="Car" color="yellow" route="left1" departSpeed="desired" depart="473" />
    <vehicle id="left1_182" type="Car" color="yellow" route="left1" departSpeed="desired" depart="477" />
    <vehicle id="up1_183" type="Car" color="yellow" route="up1" departSpeed="desired" depart="479" />
    <vehicle id="right1_184" type="Car" color="yellow" route="right1" departSpeed="desired" depart="483" />
    <vehicle id="down1_185" type="Car" color="yellow" route="down1" departSpeed="desired" depart="486" />
    <vehicle id="up1_186" type="Car" color="yellow" route="up1" departSpeed="desired" depart="490" />
    <vehicle id="left1_187" type="Car" color="yellow" route="left1" departSpeed="desired" depart="496" />
    <vehicle id="right1_188" type="Car" color="yellow" route="right1" departSpeed="desired" depart="497" />
    <vehicle id="up1_189" type="Car" color="yellow" route="up1" departSpeed="desired" depart="497" />
    <vehicle id="right1_190" type="Car" color="yellow" route="right1" departSpeed="desired" depart="499" />
    <vehicle id="left1_191" type="Car" color="yellow" route="left1" departSpeed="desired" depart="500" />
    <vehicle id="up1_192" type="Car" color="yellow" route="up1" departSpeed="desired" depart="505" />
    <vehicle id="up1_193" type="Car" color="yellow" route="up1" departSpeed="desired" depart="511" />
    <vehicle id="up1_194" type="Car" color="yellow" route="up1" departSpeed="desired" depart="517" />
    <vehicle id="up1_195" type="Car" color="yellow" route="up1" departSpeed="desired" depart="520" />
    <vehicle id="left1_196" type="Car" color="yellow" route="left1" departSpeed="desired" depart="520" />
    <vehicle id="left1_197" type="Car" color="yellow" route="left1" departSpeed="desired" depart="522" />
    <vehicle id="up1_198" type="Car" color="yellow" route="up1" departSpeed="desired" depart="529" />
    <vehicle id="right1_199" type="Car" color="yellow" route="right1" departSpeed="desired" depart="531" />
    <vehicle id="left1_200" type="Car" color="yellow" route="left1" departSpeed="desired" depart="531" />
    <vehicle id="right1_201" type="Car" color="yellow" route="right1" departSpeed="desired" depart="532" />
    <vehicle id="up1_202" type="Car" color="yellow" route="up1" departSpeed="desired" depart="543" />
    <vehicle id="left1_203" type="Car" color="yellow" route="left1" departSpeed="desired" depart="545" />
    <vehicle id="up1_204" type="Car" color="yellow" route="up1" departSpeed="desired" depart="548" />
    <vehicle id="down1_205" type="Car" color="yellow" route="down1" departSpeed="desired" depart="549" />
    <vehicle id="up1_206" type="Car" color="yellow" route="up1" departSpeed="desired" depart="551" />
    <vehicle id="right1_207" type="Car" color="yellow" route="right1" departSpeed="desired" depart="552" />
    <vehicle id="left1_208" type="Car" color="yellow" route="left1" departSpeed="desired" depart="555" />
    <vehicle id="left1_209" type="Car" color="yellow" route="left1" departSpeed="desired" depart="556" />
    <vehicle id="left1_210" type="Car" color="yellow" route="left1" departSpeed="desired" depart="557" />
    <vehicle id="up1_211" type="Car" color="yellow" route="up1" departSpeed="desired" depart="561" />
    <vehicle id="right1_212" type="Car" color="yellow" route="right1" departSpeed="desired" depart="564" />
    <vehicle id="down1_213" type="Car" color="yellow" route="down1" departSpeed="desired" depart="571" />
    <vehicle id="left1_214" type="Car" color="yellow" route="left1" departSpeed="desired" depart="577" />
    <vehicle id="left1_215" type="Car" color="yellow" route="left1" departSpeed="desired" depart="584" />
    <vehicle id="left1_216" type="Car" color="yellow" route="left1" departSpeed="desired" depart="594" />
    <vehicle id="right1_217" type="Car" color="yellow" route="right1" departSpeed="desired" depart="595" />
    <vehicle id="left1_218" type="Car" color="yellow" route="left1" departSpeed="desired" depart="595" />
    <vehicle id="right1_219" type="Car" color="yellow" route="right1" departSpeed="desired" depart="596" />
    <vehicle id="up1_220" type="Car" color="yellow" route="up1" departSpeed="desired" depart="596" />
    <vehicle id="up1_221" type="Car" color="yellow" route="up1" departSpeed="desired" depart="599" />
    <vehicle id="right1_222" type="Car" color="yellow" route="right1" departSpeed="desired" depart="603" />
    <vehicle id="down1_223" type="Car" color="yellow" route="down1" departSpeed="desired" depart="604" />
    <vehicle id="left1_224" type="Car" color="yellow" route="left1" departSpeed="desired" depart="606" />
    <vehicle id="down1_225" type="Car" color="yellow" route="down1" departSpeed="desired" depart="607" />
    <vehicle id="right1_226" type="Car" color="yellow" route="right1" departSpeed="desired" depart="609" />
    <vehicle id="up1_227" type="Car" color="yellow" route="up1" departSpeed="desired" depart="609" />
    <vehicle id="up1_228" type="Car" color="yellow" route="up1" departSpeed="desired" depart="610" />
    <vehicle id="left1_229" type="Car" color="yellow" route="left1" departSpeed="desired" depart="610" />
    <vehicle id="right1_230" type="Car" color="yellow" route="right1" departSpeed="desired" depart="611" />
    <vehicle id="up1_231" type="Car" color="yellow" route="up1" departSpeed="desired" depart="612" />
    <vehicle id="left1_232" type="Car" color="yellow" route="left1" departSpeed="desired" depart="612" />
    <vehicle id="down1_233" type="Car" color="yellow" route="down1" departSpeed="desired" depart="616" />
    <vehicle id="up1_234" type="Car" color="yellow" route="up1" departSpeed="desired" depart="617" />
    <vehicle id="up1_235" type="Car" color="yellow" route="up1" departSpeed="desired" depart="621" />
    <vehicle id="down1_236" type="Car" color="yellow" route="down1" departSpeed="desired" depart="626" />
    <vehicle id="down1_237" type="Car" color="yellow" route="down1" departSpeed="desired" depart="628" />
    <vehicle id="left1_238" type="Car" color="yellow" route="left1" departSpeed="desired" depart="631" />
    <vehicle id="up1_239" type="Car" color="yellow" route="up1" departSpeed="desired" depart="632" />
    <vehicle id="up1_240" type="Car" color="yellow" route="up1" departSpeed="desired" depart="636" />
    <vehicle id="up1_241" type="Car" color="yellow" route="up1" departSpeed="desired" depart="638" />
    <vehicle id="right1_242" type="Car" color="yellow" route="right1" departSpeed="desired" depart="639" />
    <vehicle id="up1_243" type="Car" color="yellow" route="up1" departSpeed="desired" depart="639" />
    <vehicle id="right1_244" type="Car" color="yellow" route="right1" departSpeed="desired" depart="646" />
    <vehicle id="left1_245" type="Car" color="yellow" route="left1" departSpeed="desired" depart="646" />
    <vehicle id="right1_246" type="Car" color="yellow" route="right1" departSpeed="desired" depart="648" />
    <vehicle id="down1_247" type="Car" color="yellow" route="down1" departSpeed="desired" depart="652" />
    <vehicle id="right1_248" type="Car" color="yellow" route="right1" departSpeed="desired" depart="653" />
    <vehicle id="up1_249" type="Car" color="yellow" route="up1" departSpeed="desired" depart="653" />
    <vehicle id="right1_250" type="Car" color="yellow" route="right1" departSpeed="desired" depart="655" />
    <vehicle id="right1_251" type="Car" color="yellow" route="right1" departSpeed="desired" depart="656" />
    <vehicle id="right1_252" type="Car" color="yellow" route="right1" departSpeed="desired" depart="659" />
    <vehicle id="down1_253" type="Car" color="yellow" route="down1" departSpeed="desired" depart="666" />
    <vehicle id="down1_254" type="Car" color="yellow" route="down1" departSpeed="desired" depart="667" />
    <vehicle id="up1_255" type="Car" color="yellow" route="up1" departSpeed="desired" depart="669" />
    <vehicle id="down1_256" type="Car" color="yellow" route="down1" departSpeed="desired" depart="672" />
    <vehicle id="left1_257" type="Car" color="yellow" route="left1" departSpeed="desired" depart="678" />
    <vehicle id="right1_258" type="Car" color="yellow" route="right1" departSpeed="desired" depart="684" />
    <vehicle id="left1_259" type="Car" color="yellow" route="left1" departSpeed="desired" depart="686" />
    <vehicle id="up1_260" type="Car" color="yellow" route="up1" departSpeed="desired" depart="691" />
    <vehicle id="down1_261" type="Car" color="yellow" route="down1" departSpeed="desired" depart="697" />
    <vehicle id="left1_262" type="Car" color="yellow" route="left1" departSpeed="desired" depart="697" />
    <vehicle id="up1_263" type="Car" color="yellow" route="up1" departSpeed="desired" depart="698" />
    <vehicle id="down1_264" type="Car" color="yellow" route="down1" departSpeed="desired" depart="704" />
    <vehicle id="right1_265" type="Car" color="yellow" route="right1" departSpeed="desired" depart="709" />
    <vehicle id="down1_266" type="Car" color="yellow" route="down1" departSpeed="desired" depart="710" />
    <vehicle id="right1_267" type="Car" color="yellow" route="right1" departSpeed="desired" depart="713" />
    <vehicle id="up1_268" type="Car" color="yellow" route="up1" departSpeed="desired" depart="716" />
    <vehicle id="up1_269" type="Car" color="yellow" route="up1" departSpeed="desired" depart="720" />
    <vehicle id="right1_270" type="Car" color="yellow" route="right1" departSpeed="desired" depart="722" />
    <vehicle id="right1_271" type="Car" color="yellow" route="right1" departSpeed="desired" depart="724" />
    <vehicle id="up1_272" type="Car" color="yellow" route="up1" departSpeed="desired" depart="725" />
    <vehicle id="left1_273" type="Car" color="yellow" route="left1" departSpeed="desired" depart="726" />
    <vehicle id="right1_274" type="Car" color="yellow" route="right1" departSpeed="desired" depart="727" />
    <vehicle id="up1_275" type="Car" color="yellow" route="up1" departSpeed="desired" depart="727" />
    <vehicle id="left1_276" type="Car" color="yellow" route="left1" departSpeed="desired" depart="736" />
    <vehicle id="down1_277" type="Car" color="yellow" route="down1" departSpeed="desired" depart="740" />
    <vehicle id="right1_278" type="Car" color="yellow" route="right1" departSpeed="desired" depart="745" />
    <vehicle id="down1_279" type="Car" color="yellow" route="down1" departSpeed="desired" depart="746" />
    <vehicle id="up1_280" type="Car" color="yellow" route="up1" departSpeed="desired" depart="747" />
    <vehicle id="down1_281" type="Car" color="yellow" route="down1" departSpeed="desired" depart="749" />