<routes>
      <vType id="Car" length="5.00" minGap="2.50" maxSpeed="16.67" guiShape="passenger" carFollowModel="IDM" accel="0.8" decel="4.5" tau="1.0"/>
            
    <route id="right1"  edges="1to2 2to3 3to4 4to5 5to6 outr1" />
    <route id="right2"  edges="15to16 16to17 17to18 18to19 19to20 outr2" />
    <route id="right3"  edges="29to30 30to31 31to32 32to33 33to34 outr3" />
    <route id="left1"  edges="14to13 13to12 12to11 11to10 10to9 outl1" />
    <route id="left2"  edges="28to27 27to26 26to25 25to24 24to23 outl2" />
    <route id="down1"  edges="36to2 2to9 9to16 16to23 23to30 outs1" />
    <route id="down2"  edges="40to4 4to11 11to18 18to25 25to32 outs2" />
    <route id="down3"  edges="44to6 6to13 13to20 20to27 27to34 outs3" />
    <route id="up1"  edges="39to31 31to24 24to17 17to10 10to3 outn1" />
    <route id="up2"  edges="43to33 33to26 26to19 19to12 12to5 outn2" />
    <vehicle id="right3_0" type="Car" color="yellow" route="right3" departSpeed="desired" depart="0" />
    <vehicle id="down3_1" type="Car" color="yellow" route="down3" departSpeed="desired" depart="0" />
    <vehicle id="right1_2" type="Car" color="yellow" route="right1" departSpeed="desired" depart="1" />
    <vehicle id="up2_3" type="Car" color="yellow" route="up2" departSpeed="desired" depart="1" />
    <vehicle id="right1_4" type="Car" color="yellow" route="right1" departSpeed="desired" depart="4" />
    <vehicle id="down1_5" type="Car" color="yellow" route="down1" departSpeed="desired" depart="4" />
    <vehicle id="up1_6" type="Car" color="yellow" route="up1" departSpeed="desired" depart="4" />
    <vehicle id="left2_7" type="Car" color="yellow" route="left2" departSpeed="desired" depart="4" />
    <vehicle id="right3_8" type="Car" color="yellow" route="right3" departSpeed="desired" depart="6" />
    <vehicle id="down2_9" type="Car" color="yellow" route="down2" departSpeed="desired" depart="6" />
    <vehicle id="left2_10" type="Car" color="yellow" route="left2" departSpeed="desired" depart="7" />
    <vehicle id="right1_11" type="Car" color="yellow" route="right1" departSpeed="desired" depart="8" />
    <vehicle id="up2_12" type="Car" color="yellow" route="up2" departSpeed="desired" depart="8" />
    <vehicle id="left2_13" type="Car" color="yellow" route="left2" departSpeed="desired" depart="10" />
    <vehicle id="right2_14" type="Car" color="yellow" route="right2" departSpeed="desired" depart="11" />
    <vehicle id="right3_15" type="Car" color="yellow" route="right3" departSpeed="desired" depart="11" />
    <vehicle id="down2_16" type="Car" color="yellow" route="down2" departSpeed="desired" depart="11" />
    <vehicle id="down2_17" type="Car" color="yellow" route="down2" departSpeed="desired" depart="13" />
    <vehicle id="right2_18" type="Car" color="yellow" route="right2" departSpeed="desired" depart="14" />
    <vehicle id="right1_19" type="Car" color="yellow" route="right1" departSpeed="desired" depart="15" />
    <vehicle id="left2_20" type="Car" color="yellow" route="left2" departSpeed="desired" depart="16" />
    <vehicle id="right1_21" type="Car" color="yellow" route="right1" departSpeed="desired" depart="17" />
    <vehicle id="left2_22" type="Car" color="yellow" route="left2" departSpeed="desired" depart="18" />
    <vehicle id="down1_23" type="Car" color="yellow" route="down1" departSpeed="desired" depart="19" />
    <vehicle id="left1_24" type="Car" color="yellow" route="left1" departSpeed="desired" depart="19" />
    <vehicle id="right1_25" type="Car" color="yellow" route="right1" departSpeed="desired" depart="23" />
    <vehicle id="right1_26" type="Car" color="yellow" route="right1" departSpeed="desired" depart="24" />
    <vehicle id="right1_27" type="Car" color="yellow" route="right1" departSpeed="desired" depart="27" />
    <vehicle id="left2_28" type="Car" color="yellow" route="left2" departSpeed="desired" depart="27" />
    <vehicle id="up2_29" type="Car" color="yellow" route="up2" departSpeed="desired" depart="28" />
    <vehicle id="left1_30" type="Car" color="yellow" route="left1" departSpeed="desired" depart="32" />
    <vehicle id="right3_31" type="Car" color="yellow" route="right3" departSpeed="desired" depart="34" />
    <vehicle id="left1_32" type="Car" color="yellow" route="left1" departSpeed="desired" depart="35" />
    <vehicle id="up1_33" type="Car" color="yellow" route="up1" departSpeed="desired" depart="38" />
    <vehicle id="left1_34" type="Car" color="yellow" route="left1" departSpeed="desired" depart="39" />
    <vehicle id="left2_35" type="Car" color="yellow" route="left2" departSpeed="desired" depart="39" />
    <vehicle id="right3_36" type="Car" color="yellow" route="right3" departSpeed="desired" depart="40" />
    <vehicle id="left2_37" type="Car" color="yellow" route="left2" departSpeed="desired" depart="40" />
    <vehicle id="down1_38" type="Car" color="yellow" route="down1" departSpeed="desired" depart="41" />
    <vehicle id="down2_39" type="Car" color="yellow" route="down2" departSpeed="desired" depart="41" />
    <vehicle id="down1_40" type="Car" color="yellow" route="down1" departSpeed="desired" depart="43" />
    <vehicle id="down2_41" type="Car" color="yellow" route="down2" departSpeed="desired" depart="44" />
    <vehicle id="up1_42" type="Car" color="yellow" route="up1" departSpeed="desired" depart="44" />
    <vehicle id="down1_43" type="Car" color="yellow" route="down1" departSpeed="desired" depart="46" />
    <vehicle id="left1_44" type="Car" color="yellow" route="left1" departSpeed="desired" depart="47" />
    <vehicle id="left2_45" type="Car" color="yellow" route="left2" departSpeed="desired" depart="48" />
    <vehicle id="right1_46" type="Car" color="yellow" route="right1" departSpeed="desired" depart="50" />
    <vehicle id="down3_47" type="Car" color="yellow" route="down3" departSpeed="desired" depart="50" />
    <vehicle id="right2_48" type="Car" color="yellow" route="right2" departSpeed="desired" depart="51" />
    <vehicle id="right3_49" type="Car" color="yellow" route="right3" departSpeed="desired" depart="52" />
    <vehicle id="down1_50" type="Car" color="yellow" route="down1" departSpeed="desired" depart="54" />
    <vehicle id="left2_51_emergency" type="Car" color="red" route="left2" departSpeed="desired" depart="57" />
    <vehicle id="down2_52" type="Car" color="yellow" route="down2" departSpeed="desired" depart="59" />
    <vehicle id="down1_53" type="Car" color="yellow" route="down1" departSpeed="desired" depart="60" />
    <vehicle id="right1_54" type="Car" color="yellow" route="right1" departSpeed="desired" depart="61" />
    <vehicle id="left1_55" type="Car" color="yellow" route="left1" departSpeed="desired" depart="64" />
    <vehicle id="up1_56" type="Car" color="yellow" route="up1" departSpeed="desired" depart="65" />
    <vehicle id="left2_57" type="Car" color="yellow" route="left2" departSpeed="desired" depart="65" />
    <vehicle id="right2_58" type="Car" color="yellow" route="right2" departSpeed="desired" depart="66" />
    <vehicle id="right3_59" type="Car" color="yellow" route="right3" departSpeed="desired" depart="66" />
    <vehicle id="down2_60" type="Car" color="yellow" route="down2" departSpeed="desired" depart="66" />
    <vehicle id="down3_61" type="Car" color="yellow" route="down3" departSpeed="desired" depart="67" />
    <vehicle id="right1_62" type="Car" color="yellow" route="right1" departSpeed="desired" depart="68" />
    <vehicle id="right2_63" type="Car" color="yellow" route="right2" departSpeed="desired" depart="71" />
    <vehicle id="left2_64" type="Car" color="yellow" route="left2" departSpeed="desired" depart="71" />
    <vehicle id="right3_65" type="Car" color="yellow" route="right3" departSpeed="desired" depart="72" />
    <vehicle id="down1_66" type="Car" color="yellow" route="down1" departSpeed="desired" depart="73" />
    <vehicle id="right2_67_emergency" type="Car" color="red" route="right2" departSpeed="desired" depart="74" />
    <vehicle id="right3_68" type="Car" color="yellow" route="right3" departSpeed="desired" depart="74" />
    <vehicle id="left1_69" type="Car" color="yellow" route="left1" departSpeed="desired" depart="74" />
    <vehicle id="down2_70" type="Car" color="yellow" route="down2" departSpeed="desired" depart="78" />
    <vehicle id="down3_71" type="Car" color="yellow" route="down3" departSpeed="desired" depart="78" />
    <vehicle id="right3_72" type="Car" color="yellow" route="right3" departSpeed="desired" depart="79" />
    <vehicle id="right2_73" type="Car" color="yellow" route="right2" departSpeed="desired" depart="82" />
    <vehicle id="left2_74" type="Car" color="yellow" route="left2" departSpeed="desired" depart="84" />
    <vehicle id="right1_75" type="Car" color="yellow" route="right1" departSpeed="desired" depart="85" />
    <vehicle id="left2_76" type="Car" color="yellow" route="left2" departSpeed="desired" depart="85" />
    <vehicle id="down3_77" type="Car" color="yellow" route="down3" departSpeed="desired" depart="86" />
    <vehicle id="up2_78" type="Car" color="yellow" route="up2" departSpeed="desired" depart="87" />
    <vehicle id="left2_79" type="Car" color="yellow" route="left2" departSpeed="desired" depart="88" />
    <vehicle id="down2_80" type="Car" color="yellow" route="down2" departSpeed="desired" depart="89" />
    <vehicle id="up1_81" type="Car" color="yellow" route="up1" departSpeed="desired" depart="89" />
    <vehicle id="left1_82" type="Car" color="yellow" route="left1" departSpeed="desired" depart="92" />
    <vehicle id="right3_83" type="Car" color="yellow" route="right3" departSpeed="desired" depart="94" />
    <vehicle id="down3_84" type="Car" color="yellow" route="down3" departSpeed="desired" depart="95" />
    <vehicle id="down1_85" type="Car" color="yellow" route="down1" departSpeed="desired" depart="100" />
    <vehicle id="up2_86" type="Car" color="yellow" route="up2" departSpeed="desired" depart="103" />
    <vehicle id="down2_87" type="Car" color="yellow" route="down2" departSpeed="desired" depart="105" />
    <vehicle id="right1_88" type="Car" color="yellow" route="right1" departSpeed="desired" depart="107" />
    <vehicle id="right3_89" type="Car" color="yellow" route="right3" departSpeed="desired" depart="108" />
    <vehicle id="left1_90" type="Car" color="yellow" route="left1" departSpeed="desired" depart="108" />
    <vehicle id="down2_91" type="Car" color="yellow" route="down2" departSpeed="desired" depart="109" />
    <vehicle id="up2_92" type="Car" color="yellow" route="up2" departSpeed="desired" depart="109" />
    <vehicle id="left2_93" type="Car" color="yellow" route="left2" departSpeed="desired" depart="109" />
    <vehicle id="left1_94" type="Car" color="yellow" route="left1" departSpeed="desired" depart="110" />
    <vehicle id="right2_95" type="Car" color="yellow" route="right2" departSpeed="desired" depart="111" />
    <vehicle id="right3_96" type="Car" color="yellow" route="right3" departSpeed="desired" depart="113" />
    <vehicle id="left2_97" type="Car" color="yellow" route="left2" departSpeed="desired" depart="113" />
    <vehicle id="left1_98" type="Car" color="yellow" route="left1" departSpeed="desired" depart="115" />
    <vehicle id="up1_99" type="Car" color="yellow" route="up1" departSpeed="desired" depart="117" />
    <vehicle id="up2_100" type="Car" color="yellow" route="up2" departSpeed="desired" depart="117" />
    <vehicle id="down3_101" type="Car" color="yellow" route="down3" departSpeed="desired" depart="121" />
    <vehicle id="left1_102" type="Car" color="yellow" route="left1" departSpeed="desired" depart="121" />
    <vehicle id="down2_103" type="Car" color="yellow" route="down2" departSpeed="desired" depart="123" />
    <vehicle id="down3_104" type="Car" color="yellow" route="down3" departSpeed="desired" depart="123" />
    <vehicle id="up1_105" type="Car" color="yellow" route="up1" departSpeed="desired" depart="124" />
    <vehicle id="right1_106" type="Car" color="yellow" route="right1" departSpeed="desired" depart="125" />
    <vehicle id="right2_107" type="Car" color="yellow" route="right2" departSpeed="desired" depart="125" />
    <vehicle id="right1_108" type="Car" color="yellow" route="right1" departSpeed="desired" depart="126" />
    <vehicle id="left2_109" type="Car" color="yellow" route="left2" departSpeed="desired" depart="126" />
    <vehicle id="right3_110" type="Car" color="yellow" route="right3" departSpeed="desired" depart="127" />
    <vehicle id="up1_111" type="Car" color="yellow" route="up1" departSpeed="desired" depart="127" />
    <vehicle id="up1_112" type="Car" color="yellow" route="up1" departSpeed="desired" depart="128" />
    <vehicle id="left1_113" type="Car" color="yellow" route="left1" departSpeed="desired" depart="128" />
    <vehicle id="down2_114" type="Car" color="yellow" route="down2" departSpeed="desired" depart="131" />
    <vehicle id="down3_115" type="Car" color="yellow" route="down3" departSpeed="desired" depart="133" />
    <vehicle id="right1_116" type="Car" color="yellow" route="right1" departSpeed="desired" depart="134" />
    <vehicle id="up2_117" type="Car" color="yellow" route="up2" departSpeed="desired" depart="134" />
    <vehicle id="right1_118" type="Car" color="yellow" route="right1" departSpeed="desired" depart="135" />
    <vehicle id="left1_119" type="Car" color="yellow" route="left1" departSpeed="desired" depart="136" />
    <vehicle id="down3_120" type="Car" color="yellow" route="down3" departSpeed="desired" depart="137" />
    <vehicle id="right1_121" type="Car" color="yellow" route="right1" departSpeed="desired" depart="138" />
    <vehicle id="down1_122" type="Car" color="yellow" route="down1" departSpeed="desired" depart="139" />
    <vehicle id="up2_123" type="Car" color="yellow" route="up2" departSpeed="desired" depart="139" />
    <vehicle id="right1_124" type="Car" color="yellow" route="right1" departSpeed="desired" depart="141" />
    <vehicle id="up2_125" type="Car" color="yellow" route="up2" departSpeed="desired" depart="142" />
    <vehicle id="right3_126" type="Car" color="yellow" route="right3" departSpeed="desired" depart="143" />
    <vehicle id="left1_127" type="Car" color="yellow" route="left1" departSpeed="desired" depart="143" />
    <vehicle id="down1_128" type="Car" color="yellow" route="down1" departSpeed="desired" depart="144" />
    <vehicle id="down1_129" type="Car" color="yellow" route="down1" departSpeed="desired" depart="145" />
    <vehicle id="left2_130" type="Car" color="yellow" route="left2" departSpeed="desired" depart="145" />
    <vehicle id="up1_131" type="Car" color="yellow" route="up1" departSpeed="desired" depart="146" />
    <vehicle id="right1_132" type="Car" color="yellow" route="right1" departSpeed="desired" depart="147" />
    <vehicle id="right2_133" type="Car" color="yellow" route="right2" departSpeed="desired" depart="147" />
    <vehicle id="up2_134" type="Car" color="yellow" route="up2" departSpeed="desired" depart="147" />
    <vehicle id="down3_135" type="Car" color="yellow" route="down3" departSpeed="desired" depart="149" />
    <vehicle id="left1_136" type="Car" color="yellow" route="left1" departSpeed="desired" depart="149" />
    <vehicle id="down3_137" type="Car" color="yellow" route="down3" departSpeed="desired" depart="150" />
    <vehicle id="up2_138" type="Car" color="yellow" route="up2" departSpeed="desired" depart="150" />
    <vehicle id="down2_139" type="Car" color="yellow" route="down2" departSpeed="desired" depart="151" />
    <vehicle id="right2_140" type="Car" color="yellow" route="right2" departSpeed="desired" depart="152" />
    <vehicle id="down1_141" type="Car" color="yellow" route="down1" departSpeed="desired" depart="153" />
    <vehicle id="left2_142" type="Car" color="yellow" route="left2" departSpeed="desired" depart="154" />
    <vehicle id="down1_143" type="Car" color="yellow" route="down1" departSpeed="desired" depart="157" />
    <vehicle id="right2_144" type="Car" color="yellow" route="right2" departSpeed="desired" depart="158" />
    <vehicle id="down1_145" type="Car" color="yellow" route="down1" departSpeed="desired" depart="158" />
    <vehicle id="down3_146" type="Car" color="yellow" route="down3" departSpeed="desired" depart="159" />
    <vehicle id="left1_147" type="Car" color="yellow" route="left1" departSpeed="desired" depart="159" />
    <vehicle id="right1_148" type="Car" color="yellow" route="right1" departSpeed="desired" depart="161" />
    <vehicle id="down1_149" type="Car" color="yellow" route="down1" departSpeed="desired" depart="161" />
    <vehicle id="up1_150" type="Car" color="yellow" route="up1" departSpeed="desired" depart="161" />
    <vehicle id="right2_151" type="Car" color="yellow" route="right2" departSpeed="desired" depart="162" />
    <vehicle id="down1_152" type="Car" color="yellow" route="down1" departSpeed="desired" depart="162" />
    <vehicle id="down2_153" type="Car" color="yellow" route="down2" departSpeed="desired" depart="162" />
    <vehicle id="down3_154" type="Car" color="yellow" route="down3" departSpeed="desired" depart="164" />
    <vehicle id="up2_155" type="Car" color="yellow" route="up2" departSpeed="desired" depart="164" />
    <vehicle id="right1_156" type="Car" color="yellow" route="right1" departSpeed="desired" depart="166" />
    <vehicle id="down2_157" type="Car" color="yellow" route="down2" departSpeed="desired" depart="167" />
    <vehicle id="right1_158" type="Car" color="yellow" route="right1" departSpeed="desired" depart="169" />
    <vehicle id="left2_159" type="Car" color="yellow" route="left2" departSpeed="desired" depart="170" />
    <vehicle id="left1_160" type="Car" color="yellow" route="left1" departSpeed="desired" depart="171" />
    <vehicle id="left2_161" type="Car" color="yellow" route="left2" departSpeed="desired" depart="171" />
    <vehicle id="up2_162" type="Car" color="yellow" route="up2" departSpeed="desired" depart="173" />
    <vehicle id="right3_163" type="Car" color="yellow" route="right3" departSpeed="desired" depart="174" />
    <vehicle id="left2_164" type="Car" color="yellow" route="left2" departSpeed="desired" depart="175" />
    <vehicle id="up2_165" type="Car" color="yellow" route="up2" departSpeed="desired" depart="178" />
    <vehicle id="left1_166" type="Car" color="yellow" route="left1" departSpeed="desired" depart="178" />
    <vehicle id="down2_167" type="Car" color="yellow" route="down2" departSpeed="desired" depart="179" />
    <vehicle id="up2_168" type="Car" color="yellow" route="up2" departSpeed="desired" depart="179" />
    <vehicle id="left2_169" type="Car" color="yellow" route="left2" departSpeed="desired" depart="182" />
    <vehicle id="up1_170" type="Car" color="yellow" route="up1" departSpeed="desired" depart="183" />
    <vehicle id="left1_171" type="Car" color="yellow" route="left1" departSpeed="desired" depart="183" />
    <vehicle id="down1_172" type="Car" color="yellow" route="down1" departSpeed="desired" depart="184" />
    <vehicle id="right3_173" type="Car" color="yellow" route="right3" departSpeed="desired" depart="185" />
    <vehicle id="down3_174" type="Car" color="yellow" route="down3" departSpeed="desired" depart="185" />
    <vehicle id="down1_175" type="Car" color="yellow" route="down1" departSpeed="desired" depart="186" />
    <vehicle id="up2_176" type="Car" color="yellow" route="up2" departSpeed="desired" depart="186" />
    <vehicle id="down1_177" type="Car" color="yellow" route="down1" departSpeed="desired" depart="187" />
    <vehicle id="right2_178" type="Car" color="yellow" route="right2" departSpeed="desired" depart="189" />
    <vehicle id="down2_179" type="Car" color="yellow" route="down2" departSpeed="desired" depart="190" />
    <vehicle id="up2_180" type="Car" color="yellow" route="up2" departSpeed="desired" depart="190" />
    <vehicle id="down3_181" type="Car" color="yellow" route="down3" departSpeed="desired" depart="192" />
    <vehicle id="right3_182" type="Car" color="yellow" route="right3" departSpeed="desired" depart="195" />
    <vehicle id="down3_183" type="Car" color="yellow" route="down3" departSpeed="desired" depart="195" />
    <vehicle id="right1_184" type="Car" color="yellow" route="right1" departSpeed="desired" depart="197" />
    <vehicle id="down1_185" type="Car" color="yellow" route="down1" departSpeed="desired" depart="197" />
    <vehicle id="right1_186" type="Car" color="yellow" route="right1" departSpeed="desired" depart="198" />
    <vehicle id="down1_187" type="Car" color="yellow" route="down1" departSpeed="desired" depart="198" />
    <vehicle id="right2_188" type="Car" color="yellow" route="right2" departSpeed="desired" depart="199" />
    <vehicle id="right2_189" type="Car" color="yellow" route="right2" departSpeed="desired" depart="200" />
    <vehicle id="left1_190" type="Car" color="yellow" route="left1" departSpeed="desired" depart="200" />
    <vehicle id="up2_191" type="Car" color="yellow" route="up2" departSpeed="desired" depart="201" />
    <vehicle id="down1_192" type="Car" color="yellow" route="down1" departSpeed="desired" depart="202" />
    <vehicle id="right2_193" type="Car" color="yellow" route="right2" departSpeed="desired" depart="203" />
    <vehicle id="right3_194" type="Car" color="yellow" route="right3" departSpeed="desired" depart="206" />
    <vehicle id="left2_195" type="Car" color="yellow" route="left2" departSpeed="desired" depart="206" />
    <vehicle id="up2_196_emergency" type="Car" color="red" route="up2" departSpeed="desired" depart="208" />
    <vehicle id="left1_197" type="Car" color="yellow" route="left1" departSpeed="desired" depart="211" />
    <vehicle id="down1_198" type="Car" color="yellow" route="down1" departSpeed="desired" depart="212" />
    <vehicle id="down2_199" type="Car" color="yellow" route="down2" departSpeed="desired" depart="212" />
    <vehicle id="down2_200" type="Car" color="yellow" route="down2" departSpeed="desired" depart="213" />
    <vehicle id="right2_201" type="Car" color="yellow" route="right2" departSpeed="desired" depart="215" />
    <vehicle id="right2_202" type="Car" color="yellow" route="right2" departSpeed="desired" depart="216" />
    <vehicle id="down1_203" type="Car" color="yellow" route="down1" departSpeed="desired" depart="217" />
    <vehicle id="up2_204" type="Car" color="yellow" route="up2" departSpeed="desired" depart="217" />
    <vehicle id="right3_205" type="Car" color="yellow" route="right3" departSpeed="desired" depart="218" />
    <vehicle id="up2_206" type="Car" color="yellow" route="up2" departSpeed="desired" depart="219" />
    <vehicle id="left2_207" type="Car" color="yellow" route="left2" departSpeed="desired" depart="219" />
    <vehicle id="right2_208" type="Car" color="yellow" route="right2" departSpeed="desired" depart="222" />
    <vehicle id="down1_209" type="Car" color="yellow" route="down1" departSpeed="desired" depart="222" />
    <vehicle id="up1_210" type="Car" color="yellow" route="up1" departSpeed="desired" depart="222" />
    <vehicle id="down1_211" type="Car" color="yellow" route="down1" departSpeed="desired" depart="225" />
    <vehicle id="down2_212" type="Car" color="yellow" route="down2" departSpeed="desired" depart="225" />
    <vehicle id="down3_213" type="Car" color="yellow" route="down3" departSpeed="desired" depart="226" />
    <vehicle id="right2_214" type="Car" color="yellow" route="right2" departSpeed="desired" depart="227" />
    <vehicle id="right3_215" type="Car" color="yellow" route="right3" departSpeed="desired" depart="227" />
    <vehicle id="right1_216" type="Car" color="yellow" route="right1" departSpeed="desired" depart="229" />
    <vehicle id="left1_217" type="Car" color="yellow" route="left1" departSpeed="desired" depart="229" />
    <vehicle id="right3_218" type="Car" color="yellow" route="right3" departSpeed="desired" depart="230" />
    <vehicle id="right2_219" type="Car" color="yellow" route="right2" departSpeed="desired" depart="232" />
    <vehicle id="left1_220" type="Car" color="yellow" route="left1" departSpeed="desired" depart="233" />
    <vehicle id="down3_221" type="Car" color="yellow" route="down3" departSpeed="desired" depart="234" />
    <vehicle id="left1_222" type="Car" color="yellow" route="left1" departSpeed="desired" depart="236" />
    <vehicle id="left2_223" type="Car" color="yellow" route="left2" departSpeed="desired" depart="239" />
    <vehicle id="right1_224" type="Car" color="yellow" route="right1" departSpeed="desired" depart="241" />
    <vehicle id="up2_225" type="Car" color="yellow" route="up2" departSpeed="desired" depart="241" />
    <vehicle id="right3_226" type="Car" color="yellow" route="right3" departSpeed="desired" depart="243" />
    <vehicle id="right1_227" type="Car" color="yellow" route="right1" departSpeed="desired" depart="245" />
    <vehicle id="down1_228" type="Car" color="yellow" route="down1" departSpeed="desired" depart="245" />
    <vehicle id="down2_229" type="Car" color="yellow" route="down2" departSpeed="desired" depart="248" />
    <vehicle id="up2_230" type="Car" color="yellow" route="up2" departSpeed="desired" depart="248" />
    <vehicle id="left2_231" type="Car" color="yellow" route="left2" departSpeed="desired" depart="248" />
    <vehicle id="up2_232" type="Car" color="yellow" route="up2" departSpeed="desired" depart="249" />
    <vehicle id="down2_233" type="Car" color="yellow" route="down2" departSpeed="desired" depart="250" />
    <vehicle id="up1_234" type="Car" color="yellow" route="up1" departSpeed="desired" depart="251" />
    <vehicle id="left2_235" type="Car" color="yellow" route="left2" departSpeed="desired" depart="252" />
    <vehicle id="left2_236" type="Car" color="yellow" route="left2" departSpeed="desired" depart="255" />
    <vehicle id="left2_237" type="Car" color="yellow" route="left2" departSpeed="desired" depart="258" />
    <vehicle id="down1_238" type="Car" color="yellow" route="down1" departSpeed="desired" depart="260" />
    <vehicle id="down2_239" type="Car" color="yellow" route="down2" departSpeed="desired" depart="260" />
    <vehicle id="down2_240" type="Car" color="yellow" route="down2" departSpeed="desired" depart="261" />
    <vehicle id="right1_241" type="Car" color="yellow" route="right1" departSpeed="desired" depart="263" />
    <vehicle id="left2_242" type="Car" color="yellow" route="left2" departSpeed="desired" depart="264" />
    <vehicle id="up2_243" type="Car" color="yellow" route="up2" departSpeed="desired" depart="265" />
    <vehicle id="right2_244" type="Car" color="yellow" route="right2" departSpeed="desired" depart="266" />
    <vehicle id="left2_245" type="Car" color="yellow" route="left2" departSpeed="desired" depart="271" />
    <vehicle id="right1_246" type="Car" color="yellow" route="right1" departSpeed="desired" depart="273" />
    <vehicle id="down1_247" type="Car" color="yellow" route="down1" departSpeed="desired" depart="274" />
    <vehicle id="left1_248" type="Car" color="yellow" route="left1" departSpeed="desired" depart="274" />
    <vehicle id="left2_249" type="Car" color="yellow" route="left2" departSpeed="desired" depart="275" />
    <vehicle id="right2_250" type="Car" color="yellow" route="right2" departSpeed="desired" depart="276" />
    <vehicle id="down3_251" type="Car" color="yellow" route="down3" departSpeed="desired" depart="276" />
    <vehicle id="up1_252" type="Car" color="yellow" route="up1" departSpeed="desired" depart="276" />
    <vehicle id="down2_253" type="Car" color="yellow" route="down2" departSpeed="desired" depart="278" />
    <vehicle id="down3_254" type="Car" color="yellow" route="down3" departSpeed="desired" depart="278" />
    <vehicle id="right1_255" type="Car" color="yellow" route="right1" departSpeed="desired" depart="280" />
    <vehicle id="left2_256" type="Car" color="yellow" route="left2" departSpeed="desired" depart="280" />
    <vehicle id="right2_257" type="Car" color="yellow" route="right2" departSpeed="desired" depart="282" />
    <vehicle id="right1_258" type="Car" color="yellow" route="right1" departSpeed="desired" depart="283" />
    <vehicle id="right1_259" type="Car" color="yellow" route="right1" departSpeed="desired" depart="284" />
    <vehicle id="left1_260" type="Car" color="yellow" route="left1" departSpeed="desired" depart="285" />
    <vehicle id="up1_261" type="Car" color="yellow" route="up1" departSpeed="desired" depart="287" />
    <vehicle id="down2_262" type="Car" color="yellow" route="down2" departSpeed="desired" depart="292" />
    <vehicle id="up1_263" type="Car" color="yellow" route="up1" departSpeed="desired" depart="295" />
    <vehicle id="right1_264" type="Car" color="yellow" route="right1" departSpeed="desired" depart="297" />
    <vehicle id="down2_265" type="Car" color="yellow" route="down2" departSpeed="desired" depart="297" />
    <vehicle id="down3_266" type="Car" color="yellow" route="down3" departSpeed="desired" depart="297" />
    <vehicle id="up2_267" type="Car" color="yellow" route="up2" departSpeed="desired" depart="297" />
    <vehicle id="right2_268" type="Car" color="yellow" route="right2" departSpeed="desired" depart="298" />
    <vehicle id="down1_269" type="Car" color="yellow" route="down1" departSpeed="desired" depart="298" />
    <vehicle id="left2_270" type="Car" color="yellow" route="left2" departSpeed="desired" depart="299" />
    <vehicle id="down3_271" type="Car" color="yellow" route="down3" departSpeed="desired" depart="301" />
    <vehicle id="up2_272" type="Car" color="yellow" route="up2" departSpeed="desired" depart="301" />
    <vehicle id="right3_273" type="Car" color="yellow" route="right3" departSpeed="desired" depart="302" />
    <vehicle id="down3_274" type="Car" color="yellow" route="down3" departSpeed="desired" depart="302" />
    <vehicle id="down2_275" type="Car" color="yellow" route="down2" departSpeed="desired" depart="303" />