<routes>
      <vType id="Car" length="5.00" minGap="2.50" maxSpeed="16.67" guiShape="passenger" carFollowModel="IDM" accel="0.8" decel="4.5" tau="1.0"/>
            
    <route id="right1"  edges="1to2 2to3 outr1" />
    <route id="left1"  edges="8to7 7to6 outl1" />
    <route id="down1"  edges="9to2 2to6 outs1" />
    <route id="up1"  edges="12to7 7to3 outn1" />
    <vehicle id="left1_0" type="Car" color="yellow" route="left1" departSpeed="desired" depart="4" />
    <vehicle id="up1_1" type="Car" color="yellow" route="up1" departSpeed="desired" depart="8" />
    <vehicle id="up1_2" type="Car" color="yellow" route="up1" departSpeed="desired" depart="9" />
    <vehicle id="left1_3" type="Car" color="yellow" route="left1" departSpeed="desired" depart="12" />
    <vehicle id="up1_4" type="Car" color="yellow" route="up1" departSpeed="desired" depart="19" />
    <vehicle id="up1_5" type="Car" color="yellow" route="up1" departSpeed="desired" depart="22" />
    <vehicle id="up1_6" type="Car" color="yellow" route="up1" departSpeed="desired" depart="24" />
    <vehicle id="right1_7" type="Car" color="yellow" route="right1" departSpeed="desired" depart="27" />
    <vehicle id="down1_8" type="Car" color="yellow" route="down1" departSpeed="desired" depart="30" />
    <vehicle id="left1_9" type="Car" color="yellow" route="left1" departSpeed="desired" depart="32" />
    <vehicle id="down1_10" type="Car" color="yellow" route="down1" departSpeed="desired" depart="35" />
    <vehicle id="up1_11" type="Car" color="yellow" route="up1" departSpeed="desired" depart="39" />
    <vehicle id="up1_12" type="Car" color="yellow" route="up1" departSpeed="desired" depart="40" />
    <vehicle id="down1_13" type="Car" color="yellow" route="down1" departSpeed="desired" depart="41" />
    <vehicle id="right1_14" type="Car" color="yellow" route="right1" departSpeed="desired" depart="47" />
    <vehicle id="down1_15" type="Car" color="yellow" route="down1" departSpeed="desired" depart="49" />
    <vehicle id="down1_16" type="Car" color="yellow" route="down1" departSpeed="desired" depart="51" />
    <vehicle id="up1_17" type="Car" color="yellow" route="up1" departSpeed="desired" depart="51" />
    <vehicle id="left1_18" type="Car" color="yellow" route="left1" departSpeed="desired" depart="55" />
    <vehicle id="down1_19" type="Car" color="yellow" route="down1" departSpeed="desired" depart="60" />
    <vehicle id="left1_20" type="Car" color="yellow" route="left1" departSpeed="desired" depart="60" />
    <vehicle id="left1_21" type="Car" color="yellow" route="left1" departSpeed="desired" depart="63" />
    <vehicle id="right1_22" type="Car" color="yellow" route="right1" departSpeed="desired" depart="69" />
    <vehicle id="up1_23" type="Car" color="yellow" route="up1" departSpeed="desired" depart="71" />
    <vehicle id="left1_24" type="Car" color="yellow" route="left1" departSpeed="desired" depart="73" />
    <vehicle id="down1_25" type="Car" color="yellow" route="down1" departSpeed="desired" depart="74" />
    <vehicle id="down1_26" type="Car" color="yellow" route="down1" departSpeed="desired" depart="75" />
    <vehicle id="left1_27" type="Car" color="yellow" route="left1" departSpeed="desired" depart="79" />
    <vehicle id="up1_28" type="Car" color="yellow" route="up1" departSpeed="desired" depart="81" />
    <vehicle id="down1_29" type="Car" color="yellow" route="down1" departSpeed="desired" depart="83" />
    <vehicle id="up1_30" type="Car" color="yellow" route="up1" departSpeed="desired" depart="84" />
    <vehicle id="right1_31" type="Car" color="yellow" route="right1" departSpeed="desired" depart="86" />
    <vehicle id="up1_32" type="Car" color="yellow" route="up1" departSpeed="desired" depart="87" />
    <vehicle id="up1_33" type="Car" color="yellow" route="up1" departSpeed="desired" depart="88" />
    <vehicle id="up1_34" type="Car" color="yellow" route="up1" departSpeed="desired" depart="91" />
    <vehicle id="down1_35" type="Car" color="yellow" route="down1" departSpeed="desired" depart="93" />
    <vehicle id="up1_36" type="Car" color="yellow" route="up1" departSpeed="desired" depart="93" />
    <vehicle id="left1_37" type="Car" color="yellow" route="left1" departSpeed="desired" depart="94" />
    <vehicle id="right1_38" type="Car" color="yellow" route="right1" departSpeed="desired" depart="95" />
    <vehicle id="up1_39" type="Car" color="yellow" route="up1" departSpeed="desired" depart="95" />
    <vehicle id="left1_40" type="Car" color="yellow" route="left1" departSpeed="desired" depart="101" />
    <vehicle id="right1_41" type="Car" color="yellow" route="right1" departSpeed="desired" depart="103" />
    <vehicle id="right1_42" type="Car" color="yellow" route="right1" departSpeed="desired" depart="107" />
    <vehicle id="up1_43" type="Car" color="yellow" route="up1" departSpeed="desired" depart="109" />
    <vehicle id="up1_44_emergency" type="Car" color="red" route="up1" departSpeed="desired" depart="113" />
    <vehicle id="down1_45" type="Car" color="yellow" route="down1" departSpeed="desired" depart="115" />
    <vehicle id="left1_46" type="Car" color="yellow" route="left1" departSpeed="desired" depart="115" />
    <vehicle id="right1_47" type="Car" color="yellow" route="right1" departSpeed="desired" depart="117" />
    <vehicle id="up1_48" type="Car" color="yellow" route="up1" departSpeed="desired" depart="117" />
    <vehicle id="up1_49" type="Car" color="yellow" route="up1" departSpeed="desired" depart="118" />
    <vehicle id="right1_50" type="Car" color="yellow" route="right1" departSpeed="desired" depart="119" />
    <vehicle id="up1_51" type="Car" color="yellow" route="up1" departSpeed="desired" depart="121" />
    <vehicle id="down1_52" type="Car" color="yellow" route="down1" departSpeed="desired" depart="124" />
    <vehicle id="up1_53" type="Car" color="yellow" route="up1" departSpeed="desired" depart="124" />
    <vehicle id="down1_54" type="Car" color="yellow" route="down1" departSpeed="desired" depart="127" />
    <vehicle id="left1_55" type="Car" color="yellow" route="left1" departSpeed="desired" depart="128" />
    <vehicle id="down1_56" type="Car" color="yellow" route="down1" departSpeed="desired" depart="134" />
    <vehicle id="down1_57" type="Car" color="yellow" route="down1" departSpeed="desired" depart="135" />
    <vehicle id="left1_58" type="Car" color="yellow" route="left1" departSpeed="desired" depart="138" />
    <vehicle id="down1_59" type="Car" color="yellow" route="down1" departSpeed="desired" depart="139" />
    <vehicle id="down1_60" type="Car" color="yellow" route="down1" departSpeed="desired" depart="145" />
    <vehicle id="down1_61" type="Car" color="yellow" route="down1" departSpeed="desired" depart="146" />
    <vehicle id="down1_62" type="Car" color="yellow" route="down1" departSpeed="desired" depart="152" />
    <vehicle id="down1_63" type="Car" color="yellow" route="down1" departSpeed="desired" depart="153" />
    <vehicle id="up1_64" type="Car" color="yellow" route="up1" departSpeed="desired" depart="155" />
    <vehicle id="up1_65" type="Car" color="yellow" route="up1" departSpeed="desired" depart="157" />
    <vehicle id="up1_66" type="Car" color="yellow" route="up1" departSpeed="desired" depart="158" />
    <vehicle id="down1_67" type="Car" color="yellow" route="down1" departSpeed="desired" depart="162" />
    <vehicle id="up1_68" type="Car" color="yellow" route="up1" departSpeed="desired" depart="162" />
    <vehicle id="right1_69" type="Car" color="yellow" route="right1" departSpeed="desired" depart="163" />
    <vehicle id="down1_70" type="Car" color="yellow" route="down1" departSpeed="desired" depart="164" />
    <vehicle id="right1_71" type="Car" color="yellow" route="right1" departSpeed="desired" depart="166" />
    <vehicle id="down1_72" type="Car" color="yellow" route="down1" departSpeed="desired" depart="167" />
    <vehicle id="down1_73" type="Car" color="yellow" route="down1" departSpeed="desired" depart="170" />
    <vehicle id="up1_74" type="Car" color="yellow" route="up1" departSpeed="desired" depart="172" />
    <vehicle id="down1_75" type="Car" color="yellow" route="down1" departSpeed="desired" depart="175" />
    <vehicle id="right1_76" type="Car" color="yellow" route="right1" departSpeed="desired" depart="176" />
    <vehicle id="up1_77" type="Car" color="yellow" route="up1" departSpeed="desired" depart="176" />
    <vehicle id="left1_78" type="Car" color="yellow" route="left1" departSpeed="desired" depart="177" />
    <vehicle id="down1_79" type="Car" color="yellow" route="down1" departSpeed="desired" depart="183" />
    <vehicle id="up1_80" type="Car" color="yellow" route="up1" departSpeed="desired" depart="183" />
    <vehicle id="right1_81" type="Car" color="yellow" route="right1" departSpeed="desired" depart="184" />
    <vehicle id="left1_82" type="Car" color="yellow" route="left1" departSpeed="desired" depart="185" />
    <vehicle id="right1_83" type="Car" color="yellow" route="right1" departSpeed="desired" depart="192" />
    <vehicle id="up1_84" type="Car" color="yellow" route="up1" departSpeed="desired" depart="196" />
    <vehicle id="right1_85" type="Car" color="yellow" route="right1" departSpeed="desired" depart="203" />
    <vehicle id="up1_86" type="Car" color="yellow" route="up1" departSpeed="desired" depart="206" />
    <vehicle id="right1_87" type="Car" color="yellow" route="right1" departSpeed="desired" depart="209" />
    <vehicle id="right1_88" type="Car" color="yellow" route="right1" departSpeed="desired" depart="213" />
    <vehicle id="up1_89" type="Car" color="yellow" route="up1" departSpeed="desired" depart="213" />
    <vehicle id="right1_90" type="Car" color="yellow" route="right1" departSpeed="desired" depart="215" />
    <vehicle id="left1_91" type="Car" color="yellow" route="left1" departSpeed="desired" depart="215" />
    <vehicle id="down1_92" type="Car" color="yellow" route="down1" departSpeed="desired" depart="229" />
    <vehicle id="up1_93" type="Car" color="yellow" route="up1" departSpeed="desired" depart="230" />
    <vehicle id="left1_94" type="Car" color="yellow" route="left1" departSpeed="desired" depart="231" />
    <vehicle id="right1_95" type="Car" color="yellow" route="right1" departSpeed="desired" depart="233" />
    <vehicle id="up1_96" type="Car" color="yellow" route="up1" departSpeed="desired" depart="235" />
    <vehicle id="up1_97" type="Car" color="yellow" route="up1" departSpeed="desired" depart="236" />
    <vehicle id="down1_98" type="Car" color="yellow" route="down1" departSpeed="desired" depart="237" />
    <vehicle id="right1_99" type="Car" color="yellow" route="right1" departSpeed="desired" depart="238" />
    <vehicle id="right1_100" type="Car" color="yellow" route="right1" departSpeed="desired" depart="240" />
    <vehicle id="down1_101" type="Car" color="yellow" route="down1" departSpeed="desired" depart="240" />
    <vehicle id="right1_102" type="Car" color="yellow" route="right1" departSpeed="desired" depart="241" />
    <vehicle id="right1_103" type="Car" color="yellow" route="right1" departSpeed="desired" depart="245" />
    <vehicle id="left1_104" type="Car" color="yellow" route="left1" departSpeed="desired" depart="246" />
    <vehicle id="left1_105" type="Car" color="yellow" route="left1" departSpeed="desired" depart="247" />
    <vehicle id="down1_106" type="Car" color="yellow" route="down1" departSpeed="desired" depart="249" />
    <vehicle id="right1_107" type="Car" color="yellow" route="right1" departSpeed="desired" depart="251" />
    <vehicle id="right1_108" type="Car" color="yellow" route="right1" departSpeed="desired" depart="252" />
    <vehicle id="right1_109_emergency" type="Car" color="red" route="right1" departSpeed="desired" depart="254" />
    <vehicle id="right1_110" type="Car" color="yellow" route="right1" departSpeed="desired" depart="255" />
    <vehicle id="up1_111" type="Car" color="yellow" route="up1" departSpeed="desired" depart="255" />
    <vehicle id="right1_112" type="Car" color="yellow" route="right1" departSpeed="desired" depart="256" />
    <vehicle id="up1_113" type="Car" color="yellow" route="up1" departSpeed="desired" depart="258" />
    <vehicle id="down1_114" type="Car" color="yellow" route="down1" departSpeed="desired" depart="260" />
    <vehicle id="left1_115" type="Car" color="yellow" route="left1" departSpeed="desired" depart="261" />
    <vehicle id="right1_116" type="Car" color="yellow" route="right1" departSpeed="desired" depart="264" />
    <vehicle id="right1_117" type="Car" color="yellow" route="right1" departSpeed="desired" depart="266" />
    <vehicle id="right1_118" type="Car" color="yellow" route="right1" departSpeed="desired" depart="269" />
    <vehicle id="right1_119" type="Car" color="yellow" route="right1" departSpeed="desired" depart="270" />
    <vehicle id="up1_120" type="Car" color="yellow" route="up1" departSpeed="desired" depart="272" />
    <vehicle id="left1_121" type="Car" color="yellow" route="left1" departSpeed="desired" depart="274" />
    <vehicle id="down1_122" type="Car" color="yellow" route="down1" departSpeed="desired" depart="275" />
    <vehicle id="up1_123" type="Car" color="yellow" route="up1" departSpeed="desired" depart="281" />
    <vehicle id="up1_124" type="Car" color="yellow" route="up1" departSpeed="desired" depart="288" />
    <vehicle id="right1_125" type="Car" color="yellow" route="right1" departSpeed="desired" depart="291" />
    <vehicle id="right1_126" type="Car" color="yellow" route="right1" departSpeed="desired" depart="293" />
    <vehicle id="right1_127" type="Car" color="yellow" route="right1" departSpeed="desired" depart="298" />
    <vehicle id="right1_128" type="Car" color="yellow" route="right1" departSpeed="desired" depart="299" />
    <vehicle id="right1_129" type="Car" color="yellow" route="right1" departSpeed="desired" depart="301" />
    <vehicle id="down1_130" type="Car" color="yellow" route="down1" departSpeed="desired" depart="301" />
    <vehicle id="up1_131" type="Car" color="yellow" route="up1" departSpeed="desired" depart="302" />
    <vehicle id="down1_132" type="Car" color="yellow" route="down1" departSpeed="desired" depart="303" />
    <vehicle id="down1_133" type="Car" color="yellow" route="down1" departSpeed="desired" depart="305" />
    <vehicle id="right1_134" type="Car" color="yellow" route="right1" departSpeed="desired" depart="306" />
    <vehicle id="up1_135" type="Car" color="yellow" route="up1" departSpeed="desired" depart="306" />
    <vehicle id="right1_136" type="Car" color="yellow" route="right1" departSpeed="desired" depart="308" />
    <vehicle id="up1_137" type="Car" color="yellow" route="up1" departSpeed="desired" depart="308" />
    <vehicle id="right1_138" type="Car" color="yellow" route="right1" departSpeed="desired" depart="311" />
    <vehicle id="left1_139" type="Car" color="yellow" route="left1" departSpeed="desired" depart="311" />
    <vehicle id="down1_140" type="Car" color="yellow" route="down1" departSpeed="desired" depart="317" />
    <vehicle id="right1_141" type="Car" color="yellow" route="right1" departSpeed="desired" depart="320" />
    <vehicle id="down1_142_emergency" type="Car" color="red" route="down1" departSpeed="desired" depart="322" />
    <vehicle id="down1_143" type="Car" color="yellow" route="down1" departSpeed="desired" depart="325" />
    <vehicle id="right1_144" type="Car" color="yellow" route="right1" departSpeed="desired" depart="327" />
    <vehicle id="down1_145" type="Car" color="yellow" route="down1" departSpeed="desired" depart="327" />
    <vehicle id="up1_146" type="Car" color="yellow" route="up1" departSpeed="desired" depart="327" />
    <vehicle id="up1_147" type="Car" color="yellow" route="up1" departSpeed="desired" depart="329" />
    <vehicle id="left1_148" type="Car" color="yellow" route="left1" departSpeed="desired" depart="334" />
    <vehicle id="up1_149" type="Car" color="yellow" route="up1" departSpeed="desired" depart="336" />
    <vehicle id="right1_150" type="Car" color="yellow" route="right1" departSpeed="desired" depart="344" />
    <vehicle id="down1_151" type="Car" color="yellow" route="down1" departSpeed="desired" depart="350" />
    <vehicle id="left1_152_emergency" type="Car" color="red" route="left1" departSpeed="desired" depart="352" />
    <vehicle id="up1_153" type="Car" color="yellow" route="up1" departSpeed="desired" depart="352" />
    <vehicle id="down1_154" type="Car" color="yellow" route="down1" departSpeed="desired" depart="354" />
    <vehicle id="right1_155" type="Car" color="yellow" route="right1" departSpeed="desired" depart="358" />
    <vehicle id="left1_156" type="Car" color="yellow" route="left1" departSpeed="desired" depart="366" />
    <vehicle id="left1_157" type="Car" color="yellow" route="left1" departSpeed="desired" depart="367" />
    <vehicle id="right1_158" type="Car" color="yellow" route="right1" departSpeed="desired" depart="373" />
    <vehicle id="down1_159" type="Car" color="yellow" route="down1" departSpeed="desired" depart="374" />
    <vehicle id="up1_160" type="Car" color="yellow" route="up1" departSpeed="desired" depart="375" />
    <vehicle id="down1_161" type="Car" color="yellow" route="down1" departSpeed="desired" depart="376" />
    <vehicle id="right1_162" type="Car" color="yellow" route="right1" departSpeed="desired" depart="379" />
    <vehicle id="down1_163" type="Car" color="yellow" route="down1" departSpeed="desired" depart="380" />
    <vehicle id="up1_164" type="Car" color="yellow" route="up1" departSpeed="desired" depart="381" />
    <vehicle id="down1_165" type="Car" color="yellow" route="down1" departSpeed="desired" depart="383" />
    <vehicle id="right1_166" type="Car" color="yellow" route="right1" departSpeed="desired" depart="385" />
    <vehicle id="left1_167_emergency" type="Car" color="red" route="left1" departSpeed="desired" depart="386" />
    <vehicle id="right1_168" type="Car" color="yellow" route="right1" departSpeed="desired" depart="387" />
    <vehicle id="up1_169" type="Car" color="yellow" route="up1" departSpeed="desired" depart="389" />
    <vehicle id="up1_170" type="Car" color="yellow" route="up1" departSpeed="desired" depart="391" />
    <vehicle id="up1_171" type="Car" color="yellow" route="up1" departSpeed="desired" depart="394" />
    <vehicle id="right1_172_emergency" type="Car" color="red" route="right1" departSpeed="desired" depart="397" />
    <vehicle id="right1_173" type="Car" color="yellow" route="right1" departSpeed="desired" depart="398" />
    <vehicle id="left1_174" type="Car" color="yellow" route="left1" departSpeed="desired" depart="405" />
    <vehicle id="up1_175" type="Car" color="yellow" route="up1" departSpeed="desired" depart="412" />
    <vehicle id="up1_176" type="Car" color="yellow" route="up1" departSpeed="desired" depart="414" />
    <vehicle id="up1_177" type="Car" color="yellow" route="up1" departSpeed="desired" depart="415" />
    <vehicle id="left1_178" type="Car" color="yellow" route="left1" departSpeed="desired" depart="415" />
    <vehicle id="down1_179" type="Car" color="yellow" route="down1" departSpeed="desired" depart="419" />
    <vehicle id="up1_180" type="Car" color="yellow" route="up1" departSpeed="desired" depart="419" />
    <vehicle id="up1_181" type="Car" color="yellow" route="up1" departSpeed="desired" depart="420" />
    <vehicle id="down1_182" type="Car" color="yellow" route="down1" departSpeed="desired" depart="421" />
    <vehicle id="up1_183" type="Car" color="yellow" route="up1" departSpeed="desired" depart="421" />
    <vehicle id="up1_184" type="Car" color="yellow" route="up1" departSpeed="desired" depart="422" />
    <vehicle id="right1_185" type="Car" color="yellow" route="right1" departSpeed="desired" depart="425" />
    <vehicle id="up1_186" type="Car" color="yellow" route="up1" departSpeed="desired" depart="427" />
    <vehicle id="right1_187" type="Car" color="yellow" route="right1" departSpeed="desired" depart="430" />
    <vehicle id="up1_188" type="Car" color="yellow" route="up1" departSpeed="desired" depart="433" />
    <vehicle id="up1_189" type="Car" color="yellow" route="up1" departSpeed="desired" depart="441" />
    <vehicle id="left1_190" type="Car" color="yellow" route="left1" departSpeed="desired" depart="441" />
    <vehicle id="up1_191" type="Car" color="yellow" route="up1" departSpeed="desired" depart="442" />
    <vehicle id="left1_192" type="Car" color="yellow" route="left1" departSpeed="desired" depart="442" />
    <vehicle id="down1_193" type="Car" color="yellow" route="down1" departSpeed="desired" depart="449" />
    <vehicle id="up1_194" type="Car" color="yellow" route="up1" departSpeed="desired" depart="450" />
    <vehicle id="down1_195" type="Car" color="yellow" route="down1" departSpeed="desired" depart="451" />
    <vehicle id="right1_196_emergency" type="Car" color="red" route="right1" departSpeed="desired" depart="454" />
    <vehicle id="down1_197" type="Car" color="yellow" route="down1" departSpeed="desired" depart="454" />
    <vehicle id="left1_198" type="Car" color="yellow" route="left1" departSpeed="desired" depart="460" />
    <vehicle id="down1_199" type="Car" color="yellow" route="down1" departSpeed="desired" depart="463" />
    <vehicle id="right1_200" type="Car" color="yellow" route="right1" departSpeed="desired" depart="464" />
    <vehicle id="up1_201" type="Car" color="yellow" route="up1" departSpeed="desired" depart="466" />
    <vehicle id="up1_202" type="Car" color="yellow" route="up1" departSpeed="desired" depart="469" />
    <vehicle id="down1_203" type="Car" color="yellow" route="down1" departSpeed="desired" depart="481" />
    <vehicle id="up1_204" type="Car" color="yellow" route="up1" departSpeed="desired" depart="481" />
    <vehicle id="left1_205" type="Car" color="yellow" route="left1" departSpeed="desired" depart="483" />
    <vehicle id="right1_206" type="Car" color="yellow" route="right1" departSpeed="desired" depart="484" />
    <vehicle id="left1_207" type="Car" color="yellow" route="left1" departSpeed="desired" depart="484" />
    <vehicle id="down1_208" type="Car" color="yellow" route="down1" departSpeed="desired" depart="485" />
    <vehicle id="right1_209" type="Car" color="yellow" route="right1" departSpeed="desired" depart="486" />
    <vehicle id="down1_210" type="Car" color="yellow" route="down1" departSpeed="desired" depart="490" />
    <vehicle id="down1_211" type="Car" color="yellow" route="down1" departSpeed="desired" depart="492" />
    <vehicle id="left1_212" type="Car" color="yellow" route="left1" departSpeed="desired" depart="493" />
    <vehicle id="up1_213" type="Car" color="yellow" route="up1" departSpeed="desired" depart="498" />
    <vehicle id="left1_214" type="Car" color="yellow" route="left1" departSpeed="desired" depart="500" />
    <vehicle id="down1_215" type="Car" color="yellow" route="down1" departSpeed="desired" depart="501" />
    <vehicle id="down1_216" type="Car" color="yellow" route="down1" departSpeed="desired" depart="502" />
    <vehicle id="up1_217" type="Car" color="yellow" route="up1" departSpeed="desired" depart="507" />
    <vehicle id="right1_218" type="Car" color="yellow" route="right1" departSpeed="desired" depart="508" />
    <vehicle id="right1_219" type="Car" color="yellow" route="right1" departSpeed="desired" depart="509" />
    <vehicle id="up1_220" type="Car" color="yellow" route="up1" departSpeed="desired" depart="510" />
    <vehicle id="down1_221" type="Car" color="yellow" route="down1" departSpeed="desired" depart="511" />
    <vehicle id="left1_222" type="Car" color="yellow" route="left1" departSpeed="desired" depart="515" />
    <vehicle id="up1_223" type="Car" color="yellow" route="up1" departSpeed="desired" depart="520" />
    <vehicle id="right1_224" type="Car" color="yellow" route="right1" departSpeed="desired" depart="522" />
    <vehicle id="down1_225" type="Car" color="yellow" route="down1" departSpeed="desired" depart="522" />
    <vehicle id="up1_226" type="Car" color="yellow" route="up1" departSpeed="desired" depart="522" />
    <vehicle id="up1_227" type="Car" color="yellow" route="up1" departSpeed="desired" depart="523" />
    <vehicle id="up1_228" type="Car" color="yellow" route="up1" departSpeed="desired" depart="524" />
    <vehicle id="left1_229" type="Car" color="yellow" route="left1" departSpeed="desired" depart="525" />
    <vehicle id="left1_230" type="Car" color="yellow" route="left1" departSpeed="desired" depart="529" />
    <vehicle id="up1_231" type="Car" color="yellow" route="up1" departSpeed="desired" depart="534" />
    <vehicle id="down1_232" type="Car" color="yellow" route="down1" departSpeed="desired" depart="537" />
    <vehicle id="up1_233" type="Car" color="yellow" route="up1" departSpeed="desired" depart="538" />
    <vehicle id="right1_234" type="Car" color="yellow" route="right1" departSpeed="desired" depart="542" />
    <vehicle id="right1_235" type="Car" color="yellow" route="right1" departSpeed="desired" depart="547" />
    <vehicle id="down1_236" type="Car" color="yellow" route="down1" departSpeed="desired" depart="547" />
    <vehicle id="up1_237" type="Car" color="yellow" route="up1" departSpeed="desired" depart="548" />
    <vehicle id="right1_238" type="Car" color="yellow" route="right1" departSpeed="desired" depart="550" />
    <vehicle id="right1_239" type="Car" color="yellow" route="right1" departSpeed="desired" depart="552" />
    <vehicle id="up1_240" type="Car" color="yellow" route="up1" departSpeed="desired" depart="552" />
    <vehicle id="right1_241" type="Car" color="yellow" route="right1" departSpeed="desired" depart="554" />
    <vehicle id="left1_242" type="Car" color="yellow" route="left1" departSpeed="desired" depart="554" />
    <vehicle id="down1_243" type="Car" color="yellow" route="down1" departSpeed="desired" depart="555" />
    <vehicle id="down1_244" type="Car" color="yellow" route="down1" departSpeed="desired" depart="556" />
    <vehicle id="up1_245" type="Car" color="yellow" route="up1" departSpeed="desired" depart="558" />
    <vehicle id="down1_246" type="Car" color="yellow" route="down1" departSpeed="desired" depart="560" />
    <vehicle id="down1_247" type="Car" color="yellow" route="down1" departSpeed="desired" depart="562" />
    <vehicle id="down1_248" type="Car" color="yellow" route="down1" departSpeed="desired" depart="563" />
    <vehicle id="down1_249" type="Car" color="yellow" route="down1" departSpeed="desired" depart="567" />
    <vehicle id="up1_250" type="Car" color="yellow" route="up1" departSpeed="desired" depart="567" />
    <vehicle id="right1_251" type="Car" color="yellow" route="right1" departSpeed="desired" depart="571" />
    <vehicle id="left1_252" type="Car" color="yellow" route="left1" departSpeed="desired" depart="572" />
    <vehicle id="down1_253" type="Car" color="yellow" route="down1" departSpeed="desired" depart="574" />
    <vehicle id="left1_254" type="Car" color="yellow" route="left1" departSpeed="desired" depart="576" />
    <vehicle id="down1_255" type="Car" color="yellow" route="down1" departSpeed="desired" depart="577" />
    <vehicle id="left1_256" type="Car" color="yellow" route="left1" departSpeed="desired" depart="578" />
    <vehicle id="right1_257" type="Car" color="yellow" route="right1" departSpeed="desired" depart="581" />
    <vehicle id="left1_258" type="Car" color="yellow" route="left1" departSpeed="desired" depart="583" />
    <vehicle id="down1_259" type="Car" color="yellow" route="down1" departSpeed="desired" depart="584" />
    <vehicle id="up1_260" type="Car" color="yellow" route="up1" departSpeed="desired" depart="589" />
    <vehicle id="up1_261" type="Car" color="yellow" route="up1" departSpeed="desired" depart="590" />
    <vehicle id="down1_262" type="Car" color="yellow" route="down1" departSpeed="desired" depart="591" />
    <vehicle id="left1_263" type="Car" color="yellow" route="left1" departSpeed="desired" depart="591" />
    <vehicle id="left1_264" type="Car" color="yellow" route="left1" departSpeed="desired" depart="592" />
    <vehicle id="left1_265" type="Car" color="yellow" route="left1" departSpeed="desired" depart="596" />
    <vehicle id="down1_266" type="Car" color="yellow" route="down1" departSpeed="desired" depart="602" />
    <vehicle id="left1_267" type="Car" color="yellow" route="left1" departSpeed="desired" depart="602" />
    <vehicle id="down1_268" type="Car" color="yellow" route="down1" departSpeed="desired" depart="608" />
    <vehicle id="down1_269" type="Car" color="yellow" route="down1" departSpeed="desired" depart="611" />
    <vehicle id="left1_270" type="Car" color="yellow" route="left1" departSpeed="desired" depart="611" />
    <vehicle id="up1_271" type="Car" color="yellow" route="up1" departSpeed="desired" depart="614" />
    <vehicle id="up1_272" type="Car" color="yellow" route="up1" departSpeed="desired" depart="615" />
    <vehicle id="right1_273" type="Car" color="yellow" route="right1" departSpeed="desired" depart="618" />
    <vehicle id="up1_274" type="Car" color="yellow" route="up1" departSpeed="desired" depart="618" />
    <vehicle id="right1_275_emergency" type="Car" color="red" route="right1" departSpeed="desired" depart="619" />
    <vehicle id="up1_276" type="Car" color="yellow" route="up1" departSpeed="desired" depart="619" />
    <vehicle id="left1_277" type="Car" color="yellow" route="left1" departSpeed="desired" depart="619" />
    <vehicle id="left1_278" type="Car" color="yellow" route="left1" departSpeed="desired" depart="620" />
    <vehicle id="left1_279" type="Car" color="yellow" route="left1" departSpeed="desired" depart="621" />
    <vehicle id="right1_280" type="Car" color="yellow" route="right1" departSpeed="desired" depart="623" />
    <vehicle id="up1_281" type="Car" color="yellow" route="up1" departSpeed="desired" depart="625" />