<?xml version="1.0" encoding="UTF-8"?>

<!-- generated on Wed Dec 29 08:33:19 2021 by Eclipse SUMO netconvert Version 1.6.0
<configuration xmlns:xsi="http://www.w3.org/2001/XMLSchema-instance" xsi:noNamespaceSchemaLocation="http://sumo.dlr.de/xsd/netconvertConfiguration.xsd">

    <input>
        <node-files value="cross2x2.nod.xml"/>
        <edge-files value="cross2x2.edg.xml"/>
    </input>

    <output>
        <output-file value="cross2x2.net.xml"/>
    </output>

    <report>
        <aggregate-warnings value="5"/>
    </report>

</configuration>
-->

<net version="1.6" junctionCornerDetail="5" limitTurnSpeed="5.50" xmlns:xsi="http://www.w3.org/2001/XMLSchema-instance" xsi:noNamespaceSchemaLocation="http://sumo.dlr.de/xsd/net_file.xsd">

    <location netOffset="1000.00,1000.00" convBoundary="0.00,0.00,1500.00,1500.00" origBoundary="-1000.00,-1000.00,500.00,500.00" projParameter="!"/>

    <edge id=":2_0" function="internal">
        <lane id=":2_0_0" index="0" speed="19.44" length="11.20" shape="498.40,1004.00 498.40,992.80"/>
    </edge>
    <edge id=":2_1" function="internal">
        <lane id=":2_1_0" index="0" speed="6.51" length="4.28" shape="498.40,1004.00 498.75,1001.55 499.68,1000.00"/>
    </edge>
    <edge id=":2_4" function="internal">
        <lane id=":2_4_0" index="0" speed="6.51" length="4.75" shape="499.68,1000.00 499.80,999.80 501.55,998.75 504.00,998.40"/>
    </edge>
    <edge id=":2_2" function="internal">
        <lane id=":2_2_0" index="0" speed="6.51" length="9.03" shape="492.80,998.40 495.25,998.05 497.00,997.00 498.05,995.25 498.40,992.80"/>
    </edge>
    <edge id=":2_3" function="internal">
        <lane id=":2_3_0" index="0" speed="19.44" length="11.20" shape="492.80,998.40 504.00,998.40"/>
    </edge>
    <edge id=":3_0" function="internal">
        <lane id=":3_0_0" index="0" speed="6.51" length="9.03" shape="1001.60,992.80 1001.95,995.25 1003.00,997.00 1004.75,998.05 1007.20,998.40"/>
    </edge>
    <edge id=":3_1" function="internal">
        <lane id=":3_1_0" index="0" speed="19.44" length="11.20" shape="1001.60,992.80 1001.60,1004.00"/>
    </edge>
    <edge id=":3_2" function="internal">
        <lane id=":3_2_0" index="0" speed="19.44" length="11.20" shape="996.00,998.40 1007.20,998.40"/>
    </edge>
    <edge id=":3_3" function="internal">
        <lane id=":3_3_0" index="0" speed="6.51" length="4.28" shape="996.00,998.40 998.45,998.75 1000.00,999.68"/>
    </edge>
    <edge id=":3_4" function="internal">
        <lane id=":3_4_0" index="0" speed="6.51" length="4.75" shape="1000.00,999.68 1000.20,999.80 1001.25,1001.55 1001.60,1004.00"/>
    </edge>
    <edge id=":6_0" function="internal">
        <lane id=":6_0_0" index="0" speed="6.51" length="9.03" shape="498.40,507.20 498.05,504.75 497.00,503.00 495.25,501.95 492.80,501.60"/>
    </edge>
    <edge id=":6_1" function="internal">
        <lane id=":6_1_0" index="0" speed="19.44" length="11.20" shape="498.40,507.20 498.40,496.00"/>
    </edge>
    <edge id=":6_2" function="internal">
        <lane id=":6_2_0" index="0" speed="19.44" length="11.20" shape="504.00,501.60 492.80,501.60"/>
    </edge>
    <edge id=":6_3" function="internal">
        <lane id=":6_3_0" index="0" speed="6.51" length="4.28" shape="504.00,501.60 501.55,501.25 500.00,500.32"/>
    </edge>
    <edge id=":6_4" function="internal">
        <lane id=":6_4_0" index="0" speed="6.51" length="4.75" shape="500.00,500.32 499.80,500.20 498.75,498.45 498.40,496.00"/>
    </edge>
    <edge id=":7_0" function="internal">
        <lane id=":7_0_0" index="0" speed="6.51" length="9.03" shape="1007.20,501.60 1004.75,501.95 1003.00,503.00 1001.95,504.75 1001.60,507.20"/>
    </edge>
    <edge id=":7_1" function="internal">
        <lane id=":7_1_0" index="0" speed="19.44" length="11.20" shape="1007.20,501.60 996.00,501.60"/>
    </edge>
    <edge id=":7_2" function="internal">
        <lane id=":7_2_0" index="0" speed="19.44" length="11.20" shape="1001.60,496.00 1001.60,507.20"/>
    </edge>
    <edge id=":7_3" function="internal">
        <lane id=":7_3_0" index="0" speed="6.51" length="4.28" shape="1001.60,496.00 1001.25,498.45 1000.32,500.00"/>
    </edge>
    <edge id=":7_4" function="internal">
        <lane id=":7_4_0" index="0" speed="6.51" length="4.75" shape="1000.32,500.00 1000.20,500.20 998.45,501.25 996.00,501.60"/>
    </edge>

    <edge id="12to7" from="12" to="7" priority="78">
        <lane id="12to7_0" index="0" speed="19.44" length="496.00" shape="1001.60,0.00 1001.60,496.00"/>
    </edge>
    <edge id="1to2" from="1" to="2" priority="78">
        <lane id="1to2_0" index="0" speed="19.44" length="492.80" shape="0.00,998.40 492.80,998.40"/>
    </edge>
    <edge id="2to3" from="2" to="3" priority="78">
        <lane id="2to3_0" index="0" speed="19.44" length="492.00" shape="504.00,998.40 996.00,998.40"/>
    </edge>
    <edge id="2to6" from="2" to="6" priority="78">
        <lane id="2to6_0" index="0" speed="19.44" length="485.60" shape="498.40,992.80 498.40,507.20"/>
    </edge>
    <edge id="7to3" from="7" to="3" priority="78">
        <lane id="7to3_0" index="0" speed="19.44" length="485.60" shape="1001.60,507.20 1001.60,992.80"/>
    </edge>
    <edge id="7to6" from="7" to="6" priority="78">
        <lane id="7to6_0" index="0" speed="19.44" length="492.00" shape="996.00,501.60 504.00,501.60"/>
    </edge>
    <edge id="8to7" from="8" to="7" priority="78">
        <lane id="8to7_0" index="0" speed="19.44" length="492.80" shape="1500.00,501.60 1007.20,501.60"/>
    </edge>
    <edge id="9to2" from="9" to="2" priority="78">
        <lane id="9to2_0" index="0" speed="19.44" length="496.00" shape="498.40,1500.00 498.40,1004.00"/>
    </edge>
    <edge id="outl1" from="6" to="5" priority="78">
        <lane id="outl1_0" index="0" speed="19.44" length="492.80" shape="492.80,501.60 0.00,501.60"/>
    </edge>
    <edge id="outn1" from="3" to="11" priority="78">
        <lane id="outn1_0" index="0" speed="19.44" length="496.00" shape="1001.60,1004.00 1001.60,1500.00"/>
    </edge>
    <edge id="outr1" from="3" to="4" priority="78">
        <lane id="outr1_0" index="0" speed="19.44" length="492.80" shape="1007.20,998.40 1500.00,998.40"/>
    </edge>
    <edge id="outs1" from="6" to="10" priority="78">
        <lane id="outs1_0" index="0" speed="19.44" length="496.00" shape="498.40,496.00 498.40,0.00"/>
    </edge>

    <junction id="1" type="dead_end" x="0.00" y="1000.00" incLanes="" intLanes="" shape="0.00,1000.00 0.00,996.80"/>
    <junction id="10" type="dead_end" x="500.00" y="0.00" incLanes="outs1_0" intLanes="" shape="496.80,0.00 500.00,0.00"/>
    <junction id="11" type="dead_end" x="1000.00" y="1500.00" incLanes="outn1_0" intLanes="" shape="1003.20,1500.00 1000.00,1500.00"/>
    <junction id="12" type="dead_end" x="1000.00" y="0.00" incLanes="" intLanes="" shape="1000.00,0.00 1003.20,0.00"/>
    <junction id="2" type="priority" x="500.00" y="1000.00" incLanes="9to2_0 1to2_0" intLanes=":2_0_0 :2_4_0 :2_2_0 :2_3_0" shape="496.80,1004.00 500.00,1004.00 500.44,1001.78 501.00,1001.00 501.78,1000.44 502.78,1000.11 504.00,1000.00 504.00,996.80 501.78,996.36 501.00,995.80 500.44,995.02 500.11,994.02 500.00,992.80 496.80,992.80 496.36,995.02 495.80,995.80 495.02,996.36 494.02,996.69 492.80,996.80 492.80,1000.00 495.02,1000.44 495.80,1001.00 496.36,1001.78 496.69,1002.78">
        <request index="0" response="1100" foes="1100" cont="0"/>
        <request index="1" response="1000" foes="1000" cont="1"/>
        <request index="2" response="0000" foes="0001" cont="0"/>
        <request index="3" response="0000" foes="0011" cont="0"/>
    </junction>
    <junction id="3" type="priority" x="1000.00" y="1000.00" incLanes="7to3_0 2to3_0" intLanes=":3_0_0 :3_1_0 :3_2_0 :3_4_0" shape="1000.00,1004.00 1003.20,1004.00 1003.64,1001.78 1004.20,1001.00 1004.98,1000.44 1005.98,1000.11 1007.20,1000.00 1007.20,996.80 1004.98,996.36 1004.20,995.80 1003.64,995.02 1003.31,994.02 1003.20,992.80 1000.00,992.80 999.56,995.02 999.00,995.80 998.22,996.36 997.22,996.69 996.00,996.80 996.00,1000.00 998.22,1000.44 999.00,1001.00 999.56,1001.78 999.89,1002.78">
        <request index="0" response="0000" foes="0100" cont="0"/>
        <request index="1" response="0000" foes="1100" cont="0"/>
        <request index="2" response="0011" foes="0011" cont="0"/>
        <request index="3" response="0010" foes="0010" cont="1"/>
    </junction>
    <junction id="4" type="dead_end" x="1500.00" y="1000.00" incLanes="outr1_0" intLanes="" shape="1500.00,996.80 1500.00,1000.00"/>
    <junction id="5" type="dead_end" x="0.00" y="500.00" incLanes="outl1_0" intLanes="" shape="0.00,503.20 0.00,500.00"/>
    <junction id="6" type="priority" x="500.00" y="500.00" incLanes="2to6_0 7to6_0" intLanes=":6_0_0 :6_1_0 :6_2_0 :6_4_0" shape="496.80,507.20 500.00,507.20 500.44,504.98 501.00,504.20 501.78,503.64 502.78,503.31 504.00,503.20 504.00,500.00 501.78,499.56 501.00,499.00 500.44,498.22 500.11,497.22 500.00,496.00 496.80,496.00 496.36,498.22 495.80,499.00 495.02,499.56 494.02,499.89 492.80,500.00 492.80,503.20 495.02,503.64 495.80,504.20 496.36,504.98 496.69,505.98">
        <request index="0" response="0000" foes="0100" cont="0"/>
        <request index="1" response="0000" foes="1100" cont="0"/>
        <request index="2" response="0011" foes="0011" cont="0"/>
        <request index="3" response="0010" foes="0010" cont="1"/>
    </junction>
    <junction id="7" type="priority" x="1000.00" y="500.00" incLanes="8to7_0 12to7_0" intLanes=":7_0_0 :7_1_0 :7_2_0 :7_4_0" shape="1000.00,507.20 1003.20,507.20 1003.64,504.98 1004.20,504.20 1004.98,503.64 1005.98,503.31 1007.20,503.20 1007.20,500.00 1004.98,499.56 1004.20,499.00 1003.64,498.22 1003.31,497.22 1003.20,496.00 1000.00,496.00 999.56,498.22 999.00,499.00 998.22,499.56 997.22,499.89 996.00,500.00 996.00,503.20 998.22,503.64 999.00,504.20 999.56,504.98 999.89,505.98">
        <request index="0" response="0000" foes="0100" cont="0"/>
        <request index="1" response="0000" foes="1100" cont="0"/>
        <request index="2" response="0011" foes="0011" cont="0"/>
        <request index="3" response="0010" foes="0010" cont="1"/>
    </junction>
    <junction id="8" type="dead_end" x="1500.00" y="500.00" incLanes="" intLanes="" shape="1500.00,500.00 1500.00,503.20"/>
    <junction id="9" type="dead_end" x="500.00" y="1500.00" incLanes="" intLanes="" shape="500.00,1500.00 496.80,1500.00"/>

    <junction id=":2_4_0" type="internal" x="499.68" y="1000.00" incLanes=":2_1_0 1to2_0" intLanes=":2_3_0"/>
    <junction id=":3_4_0" type="internal" x="1000.00" y="999.68" incLanes=":3_3_0 7to3_0" intLanes=":3_1_0"/>
    <junction id=":6_4_0" type="internal" x="500.00" y="500.32" incLanes=":6_3_0 2to6_0" intLanes=":6_1_0"/>
    <junction id=":7_4_0" type="internal" x="1000.32" y="500.00" incLanes=":7_3_0 8to7_0" intLanes=":7_1_0"/>

    <connection from="12to7" to="7to3" fromLane="0" toLane="0" via=":7_2_0" dir="s" state="m"/>
    <connection from="12to7" to="7to6" fromLane="0" toLane="0" via=":7_3_0" dir="l" state="m"/>
    <connection from="1to2" to="2to6" fromLane="0" toLane="0" via=":2_2_0" dir="r" state="M"/>
    <connection from="1to2" to="2to3" fromLane="0" toLane="0" via=":2_3_0" dir="s" state="M"/>
    <connection from="2to3" to="outr1" fromLane="0" toLane="0" via=":3_2_0" dir="s" state="m"/>
    <connection from="2to3" to="outn1" fromLane="0" toLane="0" via=":3_3_0" dir="l" state="m"/>
    <connection from="2to6" to="outl1" fromLane="0" toLane="0" via=":6_0_0" dir="r" state="M"/>
    <connection from="2to6" to="outs1" fromLane="0" toLane="0" via=":6_1_0" dir="s" state="M"/>
    <connection from="7to3" to="outr1" fromLane="0" toLane="0" via=":3_0_0" dir="r" state="M"/>
    <connection from="7to3" to="outn1" fromLane="0" toLane="0" via=":3_1_0" dir="s" state="M"/>
    <connection from="7to6" to="outl1" fromLane="0" toLane="0" via=":6_2_0" dir="s" state="m"/>
    <connection from="7to6" to="outs1" fromLane="0" toLane="0" via=":6_3_0" dir="l" state="m"/>
    <connection from="8to7" to="7to3" fromLane="0" toLane="0" via=":7_0_0" dir="r" state="M"/>
    <connection from="8to7" to="7to6" fromLane="0" toLane="0" via=":7_1_0" dir="s" state="M"/>
    <connection from="9to2" to="2to6" fromLane="0" toLane="0" via=":2_0_0" dir="s" state="m"/>
    <connection from="9to2" to="2to3" fromLane="0" toLane="0" via=":2_1_0" dir="l" state="m"/>

    <connection from=":2_0" to="2to6" fromLane="0" toLane="0" dir="s" state="M"/>
    <connection from=":2_1" to="2to3" fromLane="0" toLane="0" via=":2_4_0" dir="l" state="m"/>
    <connection from=":2_4" to="2to3" fromLane="0" toLane="0" dir="l" state="M"/>
    <connection from=":2_2" to="2to6" fromLane="0" toLane="0" dir="r" state="M"/>
    <connection from=":2_3" to="2to3" fromLane="0" toLane="0" dir="s" state="M"/>
    <connection from=":3_0" to="outr1" fromLane="0" toLane="0" dir="r" state="M"/>
    <connection from=":3_1" to="outn1" fromLane="0" toLane="0" dir="s" state="M"/>
    <connection from=":3_2" to="outr1" fromLane="0" toLane="0" dir="s" state="M"/>
    <connection from=":3_3" to="outn1" fromLane="0" toLane="0" via=":3_4_0" dir="l" state="m"/>
    <connection from=":3_4" to="outn1" fromLane="0" toLane="0" dir="l" state="M"/>
    <connection from=":6_0" to="outl1" fromLane="0" toLane="0" dir="r" state="M"/>
    <connection from=":6_1" to="outs1" fromLane="0" toLane="0" dir="s" state="M"/>
    <connection from=":6_2" to="outl1" fromLane="0" toLane="0" dir="s" state="M"/>
    <connection from=":6_3" to="outs1" fromLane="0" toLane="0" via=":6_4_0" dir="l" state="m"/>
    <connection from=":6_4" to="outs1" fromLane="0" toLane="0" dir="l" state="M"/>
    <connection from=":7_0" to="7to3" fromLane="0" toLane="0" dir="r" state="M"/>
    <connection from=":7_1" to="7to6" fromLane="0" toLane="0" dir="s" state="M"/>
    <connection from=":7_2" to="7to3" fromLane="0" toLane="0" dir="s" state="M"/>
    <connection from=":7_3" to="7to6" fromLane="0" toLane="0" via=":7_4_0" dir="l" state="m"/>
    <connection from=":7_4" to="7to6" fromLane="0" toLane="0" dir="l" state="M"/>

</net>
