<routes>
      <vType id="Car" length="5.00" minGap="2.50" maxSpeed="16.67" guiShape="passenger" carFollowModel="IDM" accel="0.8" decel="4.5" tau="1.0"/>
            
    <route id="right1"  edges="1to2 2to3 outr1" />
    <route id="left1"  edges="8to7 7to6 outl1" />
    <route id="down1"  edges="9to2 2to6 outs1" />
    <route id="up1"  edges="12to7 7to3 outn1" />
    <vehicle id="right1_0" type="Car" color="yellow" route="right1" departSpeed="desired" depart="0" />
    <vehicle id="down1_1" type="Car" color="yellow" route="down1" departSpeed="desired" depart="0" />
    <vehicle id="up1_2" type="Car" color="yellow" route="up1" departSpeed="desired" depart="0" />
    <vehicle id="left1_3" type="Car" color="yellow" route="left1" departSpeed="desired" depart="0" />
    <vehicle id="right1_4" type="Car" color="yellow" route="right1" departSpeed="desired" depart="1" />
    <vehicle id="down1_5" type="Car" color="yellow" route="down1" departSpeed="desired" depart="1" />
    <vehicle id="up1_6" type="Car" color="yellow" route="up1" departSpeed="desired" depart="1" />
    <vehicle id="left1_7" type="Car" color="yellow" route="left1" departSpeed="desired" depart="1" />
    <vehicle id="right1_8" type="Car" color="yellow" route="right1" departSpeed="desired" depart="2" />
    <vehicle id="down1_9" type="Car" color="yellow" route="down1" departSpeed="desired" depart="2" />
    <vehicle id="up1_10" type="Car" color="yellow" route="up1" departSpeed="desired" depart="2" />
    <vehicle id="left1_11" type="Car" color="yellow" route="left1" departSpeed="desired" depart="2" />
    <vehicle id="right1_12" type="Car" color="yellow" route="right1" departSpeed="desired" depart="3" />
    <vehicle id="down1_13" type="Car" color="yellow" route="down1" departSpeed="desired" depart="3" />
    <vehicle id="up1_14" type="Car" color="yellow" route="up1" departSpeed="desired" depart="3" />
    <vehicle id="left1_15" type="Car" color="yellow" route="left1" departSpeed="desired" depart="3" />
    <vehicle id="right1_16" type="Car" color="yellow" route="right1" departSpeed="desired" depart="4" />
    <vehicle id="down1_17" type="Car" color="yellow" route="down1" departSpeed="desired" depart="4" />
    <vehicle id="up1_18" type="Car" color="yellow" route="up1" departSpeed="desired" depart="4" />
    <vehicle id="left1_19" type="Car" color="yellow" route="left1" departSpeed="desired" depart="4" />
    <vehicle id="right1_20" type="Car" color="yellow" route="right1" departSpeed="desired" depart="5" />
    <vehicle id="down1_21" type="Car" color="yellow" route="down1" departSpeed="desired" depart="5" />
    <vehicle id="up1_22" type="Car" color="yellow" route="up1" departSpeed="desired" depart="5" />
    <vehicle id="left1_23" type="Car" color="yellow" route="left1" departSpeed="desired" depart="5" />
    <vehicle id="right1_24" type="Car" color="yellow" route="right1" departSpeed="desired" depart="6" />
    <vehicle id="down1_25" type="Car" color="yellow" route="down1" departSpeed="desired" depart="6" />
    <vehicle id="up1_26" type="Car" color="yellow" route="up1" departSpeed="desired" depart="6" />
    <vehicle id="left1_27" type="Car" color="yellow" route="left1" departSpeed="desired" depart="6" />
    <vehicle id="right1_28" type="Car" color="yellow" route="right1" departSpeed="desired" depart="7" />
    <vehicle id="down1_29" type="Car" color="yellow" route="down1" departSpeed="desired" depart="7" />
    <vehicle id="up1_30" type="Car" color="yellow" route="up1" departSpeed="desired" depart="7" />
    <vehicle id="left1_31" type="Car" color="yellow" route="left1" departSpeed="desired" depart="7" />
    <vehicle id="right1_32" type="Car" color="yellow" route="right1" departSpeed="desired" depart="8" />
    <vehicle id="down1_33" type="Car" color="yellow" route="down1" departSpeed="desired" depart="8" />
    <vehicle id="up1_34" type="Car" color="yellow" route="up1" departSpeed="desired" depart="8" />
    <vehicle id="left1_35" type="Car" color="yellow" route="left1" departSpeed="desired" depart="8" />
    <vehicle id="right1_36" type="Car" color="yellow" route="right1" departSpeed="desired" depart="9" />
    <vehicle id="down1_37" type="Car" color="yellow" route="down1" departSpeed="desired" depart="9" />
    <vehicle id="up1_38" type="Car" color="yellow" route="up1" departSpeed="desired" depart="9" />
    <vehicle id="left1_39" type="Car" color="yellow" route="left1" departSpeed="desired" depart="9" />
    <vehicle id="right1_40" type="Car" color="yellow" route="right1" departSpeed="desired" depart="10" />
    <vehicle id="down1_41" type="Car" color="yellow" route="down1" departSpeed="desired" depart="10" />
    <vehicle id="up1_42" type="Car" color="yellow" route="up1" departSpeed="desired" depart="10" />
    <vehicle id="left1_43" type="Car" color="yellow" route="left1" departSpeed="desired" depart="10" />
    <vehicle id="right1_44" type="Car" color="yellow" route="right1" departSpeed="desired" depart="11" />
    <vehicle id="down1_45" type="Car" color="yellow" route="down1" departSpeed="desired" depart="11" />
    <vehicle id="up1_46" type="Car" color="yellow" route="up1" departSpeed="desired" depart="11" />
    <vehicle id="left1_47" type="Car" color="yellow" route="left1" departSpeed="desired" depart="11" />
    <vehicle id="right1_48" type="Car" color="yellow" route="right1" departSpeed="desired" depart="12" />
    <vehicle id="down1_49" type="Car" color="yellow" route="down1" departSpeed="desired" depart="12" />
    <vehicle id="up1_50" type="Car" color="yellow" route="up1" departSpeed="desired" depart="12" />
    <vehicle id="left1_51" type="Car" color="yellow" route="left1" departSpeed="desired" depart="12" />
    <vehicle id="right1_52" type="Car" color="yellow" route="right1" departSpeed="desired" depart="13" />
    <vehicle id="down1_53" type="Car" color="yellow" route="down1" departSpeed="desired" depart="13" />
    <vehicle id="up1_54" type="Car" color="yellow" route="up1" departSpeed="desired" depart="13" />
    <vehicle id="left1_55" type="Car" color="yellow" route="left1" departSpeed="desired" depart="13" />
    <vehicle id="right1_56" type="Car" color="yellow" route="right1" departSpeed="desired" depart="14" />
    <vehicle id="down1_57" type="Car" color="yellow" route="down1" departSpeed="desired" depart="14" />
    <vehicle id="up1_58" type="Car" color="yellow" route="up1" departSpeed="desired" depart="14" />
    <vehicle id="left1_59" type="Car" color="yellow" route="left1" departSpeed="desired" depart="14" />
    <vehicle id="right1_60" type="Car" color="yellow" route="right1" departSpeed="desired" depart="15" />
    <vehicle id="down1_61" type="Car" color="yellow" route="down1" departSpeed="desired" depart="15" />
    <vehicle id="up1_62" type="Car" color="yellow" route="up1" departSpeed="desired" depart="15" />
    <vehicle id="left1_63" type="Car" color="yellow" route="left1" departSpeed="desired" depart="15" />
    <vehicle id="right1_64" type="Car" color="yellow" route="right1" departSpeed="desired" depart="16" />
    <vehicle id="down1_65" type="Car" color="yellow" route="down1" departSpeed="desired" depart="16" />
    <vehicle id="up1_66" type="Car" color="yellow" route="up1" departSpeed="desired" depart="16" />
    <vehicle id="left1_67" type="Car" color="yellow" route="left1" departSpeed="desired" depart="16" />
    <vehicle id="right1_68" type="Car" color="yellow" route="right1" departSpeed="desired" depart="17" />
    <vehicle id="down1_69" type="Car" color="yellow" route="down1" departSpeed="desired" depart="17" />
    <vehicle id="up1_70" type="Car" color="yellow" route="up1" departSpeed="desired" depart="17" />
    <vehicle id="left1_71" type="Car" color="yellow" route="left1" departSpeed="desired" depart="17" />
    <vehicle id="right1_72" type="Car" color="yellow" route="right1" departSpeed="desired" depart="18" />
    <vehicle id="down1_73" type="Car" color="yellow" route="down1" departSpeed="desired" depart="18" />
    <vehicle id="up1_74" type="Car" color="yellow" route="up1" departSpeed="desired" depart="18" />
    <vehicle id="left1_75" type="Car" color="yellow" route="left1" departSpeed="desired" depart="18" />
    <vehicle id="right1_76" type="Car" color="yellow" route="right1" departSpeed="desired" depart="19" />
    <vehicle id="down1_77" type="Car" color="yellow" route="down1" departSpeed="desired" depart="19" />
    <vehicle id="up1_78" type="Car" color="yellow" route="up1" departSpeed="desired" depart="19" />
    <vehicle id="left1_79" type="Car" color="yellow" route="left1" departSpeed="desired" depart="19" />
    <vehicle id="right1_80" type="Car" color="yellow" route="right1" departSpeed="desired" depart="20" />
    <vehicle id="down1_81" type="Car" color="yellow" route="down1" departSpeed="desired" depart="20" />
    <vehicle id="up1_82" type="Car" color="yellow" route="up1" departSpeed="desired" depart="20" />
    <vehicle id="left1_83" type="Car" color="yellow" route="left1" departSpeed="desired" depart="20" />
    <vehicle id="right1_84" type="Car" color="yellow" route="right1" departSpeed="desired" depart="21" />
    <vehicle id="down1_85" type="Car" color="yellow" route="down1" departSpeed="desired" depart="21" />
    <vehicle id="up1_86" type="Car" color="yellow" route="up1" departSpeed="desired" depart="21" />
    <vehicle id="left1_87" type="Car" color="yellow" route="left1" departSpeed="desired" depart="21" />
    <vehicle id="right1_88" type="Car" color="yellow" route="right1" departSpeed="desired" depart="22" />
    <vehicle id="down1_89" type="Car" color="yellow" route="down1" departSpeed="desired" depart="22" />
    <vehicle id="up1_90" type="Car" color="yellow" route="up1" departSpeed="desired" depart="22" />
    <vehicle id="left1_91" type="Car" color="yellow" route="left1" departSpeed="desired" depart="22" />
    <vehicle id="right1_92" type="Car" color="yellow" route="right1" departSpeed="desired" depart="23" />
    <vehicle id="down1_93" type="Car" color="yellow" route="down1" departSpeed="desired" depart="23" />
    <vehicle id="up1_94" type="Car" color="yellow" route="up1" departSpeed="desired" depart="23" />
    <vehicle id="left1_95" type="Car" color="yellow" route="left1" departSpeed="desired" depart="23" />
    <vehicle id="right1_96" type="Car" color="yellow" route="right1" departSpeed="desired" depart="24" />
    <vehicle id="down1_97" type="Car" color="yellow" route="down1" departSpeed="desired" depart="24" />
    <vehicle id="up1_98" type="Car" color="yellow" route="up1" departSpeed="desired" depart="24" />
    <vehicle id="left1_99" type="Car" color="yellow" route="left1" departSpeed="desired" depart="24" />
    <vehicle id="right1_100" type="Car" color="yellow" route="right1" departSpeed="desired" depart="25" />
    <vehicle id="down1_101" type="Car" color="yellow" route="down1" departSpeed="desired" depart="25" />
    <vehicle id="up1_102" type="Car" color="yellow" route="up1" departSpeed="desired" depart="25" />
    <vehicle id="left1_103" type="Car" color="yellow" route="left1" departSpeed="desired" depart="25" />
    <vehicle id="right1_104" type="Car" color="yellow" route="right1" departSpeed="desired" depart="26" />
    <vehicle id="down1_105" type="Car" color="yellow" route="down1" departSpeed="desired" depart="26" />
    <vehicle id="up1_106" type="Car" color="yellow" route="up1" departSpeed="desired" depart="26" />
    <vehicle id="left1_107" type="Car" color="yellow" route="left1" departSpeed="desired" depart="26" />
    <vehicle id="right1_108" type="Car" color="yellow" route="right1" departSpeed="desired" depart="27" />
    <vehicle id="down1_109" type="Car" color="yellow" route="down1" departSpeed="desired" depart="27" />
    <vehicle id="up1_110" type="Car" color="yellow" route="up1" departSpeed="desired" depart="27" />
    <vehicle id="left1_111" type="Car" color="yellow" route="left1" departSpeed="desired" depart="27" />
    <vehicle id="right1_112" type="Car" color="yellow" route="right1" departSpeed="desired" depart="28" />
    <vehicle id="down1_113" type="Car" color="yellow" route="down1" departSpeed="desired" depart="28" />
    <vehicle id="up1_114" type="Car" color="yellow" route="up1" departSpeed="desired" depart="28" />
    <vehicle id="left1_115" type="Car" color="yellow" route="left1" departSpeed="desired" depart="28" />
    <vehicle id="right1_116" type="Car" color="yellow" route="right1" departSpeed="desired" depart="29" />
    <vehicle id="down1_117" type="Car" color="yellow" route="down1" departSpeed="desired" depart="29" />
    <vehicle id="up1_118" type="Car" color="yellow" route="up1" departSpeed="desired" depart="29" />
    <vehicle id="left1_119" type="Car" color="yellow" route="left1" departSpeed="desired" depart="29" />
    <vehicle id="right1_120" type="Car" color="yellow" route="right1" departSpeed="desired" depart="30" />
    <vehicle id="down1_121" type="Car" color="yellow" route="down1" departSpeed="desired" depart="30" />
    <vehicle id="up1_122" type="Car" color="yellow" route="up1" departSpeed="desired" depart="30" />
    <vehicle id="left1_123" type="Car" color="yellow" route="left1" departSpeed="desired" depart="30" />
    <vehicle id="right1_124" type="Car" color="yellow" route="right1" departSpeed="desired" depart="31" />
    <vehicle id="down1_125" type="Car" color="yellow" route="down1" departSpeed="desired" depart="31" />
    <vehicle id="up1_126" type="Car" color="yellow" route="up1" departSpeed="desired" depart="31" />
    <vehicle id="left1_127" type="Car" color="yellow" route="left1" departSpeed="desired" depart="31" />
    <vehicle id="right1_128" type="Car" color="yellow" route="right1" departSpeed="desired" depart="32" />
    <vehicle id="down1_129" type="Car" color="yellow" route="down1" departSpeed="desired" depart="32" />
    <vehicle id="up1_130" type="Car" color="yellow" route="up1" departSpeed="desired" depart="32" />
    <vehicle id="left1_131" type="Car" color="yellow" route="left1" departSpeed="desired" depart="32" />
    <vehicle id="right1_132" type="Car" color="yellow" route="right1" departSpeed="desired" depart="33" />
    <vehicle id="down1_133" type="Car" color="yellow" route="down1" departSpeed="desired" depart="33" />
    <vehicle id="up1_134" type="Car" color="yellow" route="up1" departSpeed="desired" depart="33" />
    <vehicle id="left1_135" type="Car" color="yellow" route="left1" departSpeed="desired" depart="33" />
    <vehicle id="right1_136" type="Car" color="yellow" route="right1" departSpeed="desired" depart="34" />
    <vehicle id="down1_137" type="Car" color="yellow" route="down1" departSpeed="desired" depart="34" />
    <vehicle id="up1_138" type="Car" color="yellow" route="up1" departSpeed="desired" depart="34" />
    <vehicle id="left1_139" type="Car" color="yellow" route="left1" departSpeed="desired" depart="34" />
    <vehicle id="right1_140" type="Car" color="yellow" route="right1" departSpeed="desired" depart="35" />
    <vehicle id="down1_141" type="Car" color="yellow" route="down1" departSpeed="desired" depart="35" />
    <vehicle id="up1_142" type="Car" color="yellow" route="up1" departSpeed="desired" depart="35" />
    <vehicle id="left1_143" type="Car" color="yellow" route="left1" departSpeed="desired" depart="35" />
    <vehicle id="right1_144" type="Car" color="yellow" route="right1" departSpeed="desired" depart="36" />
    <vehicle id="down1_145" type="Car" color="yellow" route="down1" departSpeed="desired" depart="36" />
    <vehicle id="up1_146" type="Car" color="yellow" route="up1" departSpeed="desired" depart="36" />
    <vehicle id="left1_147" type="Car" color="yellow" route="left1" departSpeed="desired" depart="36" />
    <vehicle id="right1_148" type="Car" color="yellow" route="right1" departSpeed="desired" depart="37" />
    <vehicle id="down1_149" type="Car" color="yellow" route="down1" departSpeed="desired" depart="37" />
    <vehicle id="up1_150" type="Car" color="yellow" route="up1" departSpeed="desired" depart="37" />
    <vehicle id="left1_151" type="Car" color="yellow" route="left1" departSpeed="desired" depart="37" />
    <vehicle id="right1_152" type="Car" color="yellow" route="right1" departSpeed="desired" depart="38" />
    <vehicle id="down1_153" type="Car" color="yellow" route="down1" departSpeed="desired" depart="38" />
    <vehicle id="up1_154" type="Car" color="yellow" route="up1" departSpeed="desired" depart="38" />
    <vehicle id="left1_155" type="Car" color="yellow" route="left1" departSpeed="desired" depart="38" />
    <vehicle id="right1_156" type="Car" color="yellow" route="right1" departSpeed="desired" depart="39" />
    <vehicle id="down1_157" type="Car" color="yellow" route="down1" departSpeed="desired" depart="39" />
    <vehicle id="up1_158" type="Car" color="yellow" route="up1" departSpeed="desired" depart="39" />
    <vehicle id="left1_159" type="Car" color="yellow" route="left1" departSpeed="desired" depart="39" />
    <vehicle id="right1_160" type="Car" color="yellow" route="right1" departSpeed="desired" depart="40" />
    <vehicle id="down1_161" type="Car" color="yellow" route="down1" departSpeed="desired" depart="40" />
    <vehicle id="up1_162" type="Car" color="yellow" route="up1" departSpeed="desired" depart="40" />
    <vehicle id="left1_163" type="Car" color="yellow" route="left1" departSpeed="desired" depart="40" />
    <vehicle id="right1_164" type="Car" color="yellow" route="right1" departSpeed="desired" depart="41" />
    <vehicle id="down1_165" type="Car" color="yellow" route="down1" departSpeed="desired" depart="41" />
    <vehicle id="up1_166" type="Car" color="yellow" route="up1" departSpeed="desired" depart="41" />
    <vehicle id="left1_167" type="Car" color="yellow" route="left1" departSpeed="desired" depart="41" />
    <vehicle id="right1_168" type="Car" color="yellow" route="right1" departSpeed="desired" depart="42" />
    <vehicle id="down1_169" type="Car" color="yellow" route="down1" departSpeed="desired" depart="42" />
    <vehicle id="up1_170" type="Car" color="yellow" route="up1" departSpeed="desired" depart="42" />
    <vehicle id="left1_171" type="Car" color="yellow" route="left1" departSpeed="desired" depart="42" />
    <vehicle id="right1_172" type="Car" color="yellow" route="right1" departSpeed="desired" depart="43" />
    <vehicle id="down1_173" type="Car" color="yellow" route="down1" departSpeed="desired" depart="43" />
    <vehicle id="up1_174" type="Car" color="yellow" route="up1" departSpeed="desired" depart="43" />
    <vehicle id="left1_175" type="Car" color="yellow" route="left1" departSpeed="desired" depart="43" />
    <vehicle id="right1_176" type="Car" color="yellow" route="right1" departSpeed="desired" depart="44" />
    <vehicle id="down1_177" type="Car" color="yellow" route="down1" departSpeed="desired" depart="44" />
    <vehicle id="up1_178" type="Car" color="yellow" route="up1" departSpeed="desired" depart="44" />
    <vehicle id="left1_179" type="Car" color="yellow" route="left1" departSpeed="desired" depart="44" />
    <vehicle id="right1_180" type="Car" color="yellow" route="right1" departSpeed="desired" depart="45" />
    <vehicle id="down1_181" type="Car" color="yellow" route="down1" departSpeed="desired" depart="45" />
    <vehicle id="up1_182" type="Car" color="yellow" route="up1" departSpeed="desired" depart="45" />
    <vehicle id="left1_183" type="Car" color="yellow" route="left1" departSpeed="desired" depart="45" />
    <vehicle id="right1_184" type="Car" color="yellow" route="right1" departSpeed="desired" depart="46" />
    <vehicle id="down1_185" type="Car" color="yellow" route="down1" departSpeed="desired" depart="46" />
    <vehicle id="up1_186" type="Car" color="yellow" route="up1" departSpeed="desired" depart="46" />
    <vehicle id="left1_187" type="Car" color="yellow" route="left1" departSpeed="desired" depart="46" />
    <vehicle id="right1_188" type="Car" color="yellow" route="right1" departSpeed="desired" depart="47" />
    <vehicle id="down1_189" type="Car" color="yellow" route="down1" departSpeed="desired" depart="47" />
    <vehicle id="up1_190" type="Car" color="yellow" route="up1" departSpeed="desired" depart="47" />
    <vehicle id="left1_191" type="Car" color="yellow" route="left1" departSpeed="desired" depart="47" />
    <vehicle id="right1_192" type="Car" color="yellow" route="right1" departSpeed="desired" depart="48" />
    <vehicle id="down1_193" type="Car" color="yellow" route="down1" departSpeed="desired" depart="48" />
    <vehicle id="up1_194" type="Car" color="yellow" route="up1" departSpeed="desired" depart="48" />
    <vehicle id="left1_195" type="Car" color="yellow" route="left1" departSpeed="desired" depart="48" />
    <vehicle id="right1_196" type="Car" color="yellow" route="right1" departSpeed="desired" depart="49" />
    <vehicle id="down1_197" type="Car" color="yellow" route="down1" departSpeed="desired" depart="49" />
    <vehicle id="up1_198" type="Car" color="yellow" route="up1" departSpeed="desired" depart="49" />
    <vehicle id="left1_199" type="Car" color="yellow" route="left1" departSpeed="desired" depart="49" />
    <vehicle id="right1_200" type="Car" color="yellow" route="right1" departSpeed="desired" depart="50" />
    <vehicle id="down1_201" type="Car" color="yellow" route="down1" departSpeed="desired" depart="50" />
    <vehicle id="up1_202" type="Car" color="yellow" route="up1" departSpeed="desired" depart="50" />
    <vehicle id="left1_203" type="Car" color="yellow" route="left1" departSpeed="desired" depart="50" />
    <vehicle id="right1_204" type="Car" color="yellow" route="right1" departSpeed="desired" depart="51" />
    <vehicle id="down1_205" type="Car" color="yellow" route="down1" departSpeed="desired" depart="51" />
    <vehicle id="up1_206" type="Car" color="yellow" route="up1" departSpeed="desired" depart="51" />
    <vehicle id="left1_207" type="Car" color="yellow" route="left1" departSpeed="desired" depart="51" />
    <vehicle id="right1_208" type="Car" color="yellow" route="right1" departSpeed="desired" depart="52" />
    <vehicle id="down1_209" type="Car" color="yellow" route="down1" departSpeed="desired" depart="52" />
    <vehicle id="up1_210" type="Car" color="yellow" route="up1" departSpeed="desired" depart="52" />
    <vehicle id="left1_211" type="Car" color="yellow" route="left1" departSpeed="desired" depart="52" />
    <vehicle id="right1_212" type="Car" color="yellow" route="right1" departSpeed="desired" depart="53" />
    <vehicle id="down1_213" type="Car" color="yellow" route="down1" departSpeed="desired" depart="53" />
    <vehicle id="up1_214" type="Car" color="yellow" route="up1" departSpeed="desired" depart="53" />
    <vehicle id="left1_215" type="Car" color="yellow" route="left1" departSpeed="desired" depart="53" />
    <vehicle id="right1_216" type="Car" color="yellow" route="right1" departSpeed="desired" depart="54" />
    <vehicle id="down1_217" type="Car" color="yellow" route="down1" departSpeed="desired" depart="54" />
    <vehicle id="up1_218" type="Car" color="yellow" route="up1" departSpeed="desired" depart="54" />
    <vehicle id="left1_219" type="Car" color="yellow" route="left1" departSpeed="desired" depart="54" />
    <vehicle id="right1_220" type="Car" color="yellow" route="right1" departSpeed="desired" depart="55" />
    <vehicle id="down1_221" type="Car" color="yellow" route="down1" departSpeed="desired" depart="55" />
    <vehicle id="up1_222" type="Car" color="yellow" route="up1" departSpeed="desired" depart="55" />
    <vehicle id="left1_223" type="Car" color="yellow" route="left1" departSpeed="desired" depart="55" />
    <vehicle id="right1_224" type="Car" color="yellow" route="right1" departSpeed="desired" depart="56" />
    <vehicle id="down1_225" type="Car" color="yellow" route="down1" departSpeed="desired" depart="56" />
    <vehicle id="up1_226" type="Car" color="yellow" route="up1" departSpeed="desired" depart="56" />
    <vehicle id="left1_227" type="Car" color="yellow" route="left1" departSpeed="desired" depart="56" />
    <vehicle id="right1_228" type="Car" color="yellow" route="right1" departSpeed="desired" depart="57" />
    <vehicle id="down1_229" type="Car" color="yellow" route="down1" departSpeed="desired" depart="57" />
    <vehicle id="up1_230" type="Car" color="yellow" route="up1" departSpeed="desired" depart="57" />
    <vehicle id="left1_231" type="Car" color="yellow" route="left1" departSpeed="desired" depart="57" />
    <vehicle id="right1_232" type="Car" color="yellow" route="right1" departSpeed="desired" depart="58" />
    <vehicle id="down1_233" type="Car" color="yellow" route="down1" departSpeed="desired" depart="58" />
    <vehicle id="up1_234" type="Car" color="yellow" route="up1" departSpeed="desired" depart="58" />
    <vehicle id="left1_235" type="Car" color="yellow" route="left1" departSpeed="desired" depart="58" />
    <vehicle id="right1_236" type="Car" color="yellow" route="right1" departSpeed="desired" depart="59" />
    <vehicle id="down1_237" type="Car" color="yellow" route="down1" departSpeed="desired" depart="59" />
    <vehicle id="up1_238" type="Car" color="yellow" route="up1" departSpeed="desired" depart="59" />
    <vehicle id="left1_239" type="Car" color="yellow" route="left1" departSpeed="desired" depart="59" />
    <vehicle id="right1_240" type="Car" color="yellow" route="right1" departSpeed="desired" depart="60" />
    <vehicle id="down1_241" type="Car" color="yellow" route="down1" departSpeed="desired" depart="60" />
    <vehicle id="up1_242" type="Car" color="yellow" route="up1" departSpeed="desired" depart="60" />
    <vehicle id="left1_243" type="Car" color="yellow" route="left1" departSpeed="desired" depart="60" />
    <vehicle id="right1_244" type="Car" color="yellow" route="right1" departSpeed="desired" depart="61" />
    <vehicle id="down1_245" type="Car" color="yellow" route="down1" departSpeed="desired" depart="61" />
    <vehicle id="up1_246" type="Car" color="yellow" route="up1" departSpeed="desired" depart="61" />
    <vehicle id="left1_247" type="Car" color="yellow" route="left1" departSpeed="desired" depart="61" />
    <vehicle id="right1_248" type="Car" color="yellow" route="right1" departSpeed="desired" depart="62" />
    <vehicle id="down1_249" type="Car" color="yellow" route="down1" departSpeed="desired" depart="62" />
    <vehicle id="up1_250" type="Car" color="yellow" route="up1" departSpeed="desired" depart="62" />
    <vehicle id="left1_251" type="Car" color="yellow" route="left1" departSpeed="desired" depart="62" />
    <vehicle id="right1_252" type="Car" color="yellow" route="right1" departSpeed="desired" depart="63" />
    <vehicle id="down1_253" type="Car" color="yellow" route="down1" departSpeed="desired" depart="63" />
    <vehicle id="up1_254" type="Car" color="yellow" route="up1" departSpeed="desired" depart="63" />
    <vehicle id="left1_255" type="Car" color="yellow" route="left1" departSpeed="desired" depart="63" />
    <vehicle id="right1_256" type="Car" color="yellow" route="right1" departSpeed="desired" depart="64" />
    <vehicle id="down1_257" type="Car" color="yellow" route="down1" departSpeed="desired" depart="64" />
    <vehicle id="up1_258" type="Car" color="yellow" route="up1" departSpeed="desired" depart="64" />
    <vehicle id="left1_259" type="Car" color="yellow" route="left1" departSpeed="desired" depart="64" />
    <vehicle id="right1_260" type="Car" color="yellow" route="right1" departSpeed="desired" depart="65" />
    <vehicle id="down1_261" type="Car" color="yellow" route="down1" departSpeed="desired" depart="65" />
    <vehicle id="up1_262" type="Car" color="yellow" route="up1" departSpeed="desired" depart="65" />
    <vehicle id="left1_263" type="Car" color="yellow" route="left1" departSpeed="desired" depart="65" />
    <vehicle id="right1_264" type="Car" color="yellow" route="right1" departSpeed="desired" depart="66" />
    <vehicle id="down1_265" type="Car" color="yellow" route="down1" departSpeed="desired" depart="66" />
    <vehicle id="up1_266" type="Car" color="yellow" route="up1" departSpeed="desired" depart="66" />
    <vehicle id="left1_267" type="Car" color="yellow" route="left1" departSpeed="desired" depart="66" />
    <vehicle id="right1_268" type="Car" color="yellow" route="right1" departSpeed="desired" depart="67" />
    <vehicle id="down1_269" type="Car" color="yellow" route="down1" departSpeed="desired" depart="67" />
    <vehicle id="up1_270" type="Car" color="yellow" route="up1" departSpeed="desired" depart="67" />
    <vehicle id="left1_271" type="Car" color="yellow" route="left1" departSpeed="desired" depart="67" />
    <vehicle id="right1_272" type="Car" color="yellow" route="right1" departSpeed="desired" depart="68" />
    <vehicle id="down1_273" type="Car" color="yellow" route="down1" departSpeed="desired" depart="68" />
    <vehicle id="up1_274" type="Car" color="yellow" route="up1" departSpeed="desired" depart="68" />
    <vehicle id="left1_275" type="Car" color="yellow" route="left1" departSpeed="desired" depart="68" />
    <vehicle id="right1_276" type="Car" color="yellow" route="right1" departSpeed="desired" depart="69" />
    <vehicle id="down1_277" type="Car" color="yellow" route="down1" departSpeed="desired" depart="69" />
    <vehicle id="up1_278" type="Car" color="yellow" route="up1" departSpeed="desired" depart="69" />
    <vehicle id="left1_279" type="Car" color="yellow" route="left1" departSpeed="desired" depart="69" />
    <vehicle id="right1_280" type="Car" color="yellow" route="right1" departSpeed="desired" depart="70" />
    <vehicle id="down1_281" type="Car" color="yellow" route="down1" departSpeed="desired" depart="70" />
    <vehicle id="up1_282" type="Car" color="yellow" route="up1" departSpeed="desired" depart="70" />
    <vehicle id="left1_283" type="Car" color="yellow" route="left1" departSpeed="desired" depart="70" />