<routes>
        <vType id="Car" length="5.00" minGap="2.50" maxSpeed="16.67" guiShape="passenger" carFollowModel="IDM" accel="0.8" decel="4.5" tau="1.0"/>

        <route id="right" edges="1to2 2to3 outr" />
        <route id="down" edges="9to2 2to6 outs" />
        <route id="up" edges="12to7 7to3 outn" />
        <route id="left" edges="8to7 7to6 outl" />
        
    <vehicle id="right_0" type="Car" color="yellow" route="right" departSpeed="desired" depart="0" />
    <vehicle id="left_1" type="Car" color="yellow" route="left" departSpeed="desired" depart="2" />
    <vehicle id="up_2" type="Car" color="yellow" route="up" departSpeed="desired" depart="6" />
    <vehicle id="left_3" type="Car" color="yellow" route="left" departSpeed="desired" depart="6" />
    <vehicle id="right_4" type="Car" color="yellow" route="right" departSpeed="desired" depart="7" />
    <vehicle id="left_5" type="Car" color="yellow" route="left" departSpeed="desired" depart="7" />
    <vehicle id="left_6" type="Car" color="yellow" route="left" departSpeed="desired" depart="9" />
    <vehicle id="down_7_flaw" type="Car" color="blue" route="down" departSpeed="desired" depart="10" />
    <vehicle id="left_8" type="Car" color="yellow" route="left" departSpeed="desired" depart="11" />
    <vehicle id="down_9" type="Car" color="yellow" route="down" departSpeed="desired" depart="13" />
    <vehicle id="left_10" type="Car" color="yellow" route="left" departSpeed="desired" depart="14" />
    <vehicle id="right_11" type="Car" color="yellow" route="right" departSpeed="desired" depart="20" />
    <vehicle id="up_12" type="Car" color="yellow" route="up" departSpeed="desired" depart="21" />
    <vehicle id="up_13" type="Car" color="yellow" route="up" departSpeed="desired" depart="22" />
    <vehicle id="right_14" type="Car" color="yellow" route="right" departSpeed="desired" depart="23" />
    <vehicle id="left_15" type="Car" color="yellow" route="left" departSpeed="desired" depart="23" />
    <vehicle id="up_16" type="Car" color="yellow" route="up" departSpeed="desired" depart="27" />
    <vehicle id="left_17" type="Car" color="yellow" route="left" departSpeed="desired" depart="27" />
    <vehicle id="up_18" type="Car" color="yellow" route="up" departSpeed="desired" depart="28" />
    <vehicle id="left_19" type="Car" color="yellow" route="left" departSpeed="desired" depart="28" />
    <vehicle id="right_20" type="Car" color="yellow" route="right" departSpeed="desired" depart="31" />
    <vehicle id="down_21" type="Car" color="yellow" route="down" departSpeed="desired" depart="38" />
    <vehicle id="down_22_flaw" type="Car" color="blue" route="down" departSpeed="desired" depart="41" />
    <vehicle id="left_23" type="Car" color="yellow" route="left" departSpeed="desired" depart="41" />
    <vehicle id="left_24_flaw" type="Car" color="blue" route="left" departSpeed="desired" depart="43" />
    <vehicle id="down_25" type="Car" color="yellow" route="down" departSpeed="desired" depart="43" />
    <vehicle id="down_26" type="Car" color="yellow" route="down" departSpeed="desired" depart="46" />
    <vehicle id="right_27" type="Car" color="yellow" route="right" departSpeed="desired" depart="47" />
    <vehicle id="down_28" type="Car" color="yellow" route="down" departSpeed="desired" depart="50" />
    <vehicle id="up_29" type="Car" color="yellow" route="up" departSpeed="desired" depart="51" />
    <vehicle id="left_30" type="Car" color="yellow" route="left" departSpeed="desired" depart="51" />
    <vehicle id="left_31" type="Car" color="yellow" route="left" departSpeed="desired" depart="55" />
    <vehicle id="right_32" type="Car" color="yellow" route="right" departSpeed="desired" depart="59" />
    <vehicle id="left_33" type="Car" color="yellow" route="left" departSpeed="desired" depart="61" />
    <vehicle id="right_34" type="Car" color="yellow" route="right" departSpeed="desired" depart="66" />
    <vehicle id="right_35" type="Car" color="yellow" route="right" departSpeed="desired" depart="69" />
    <vehicle id="left_36" type="Car" color="yellow" route="left" departSpeed="desired" depart="70" />
    <vehicle id="up_37" type="Car" color="yellow" route="up" departSpeed="desired" depart="74" />
    <vehicle id="left_38" type="Car" color="yellow" route="left" departSpeed="desired" depart="80" />
    <vehicle id="down_39" type="Car" color="yellow" route="down" departSpeed="desired" depart="82" />
    <vehicle id="left_40" type="Car" color="yellow" route="left" departSpeed="desired" depart="82" />
    <vehicle id="up_41" type="Car" color="yellow" route="up" departSpeed="desired" depart="83" />
    <vehicle id="left_42" type="Car" color="yellow" route="left" departSpeed="desired" depart="84" />
    <vehicle id="down_43" type="Car" color="yellow" route="down" departSpeed="desired" depart="85" />
    <vehicle id="right_44" type="Car" color="yellow" route="right" departSpeed="desired" depart="86" />
    <vehicle id="up_45" type="Car" color="yellow" route="up" departSpeed="desired" depart="86" />
    <vehicle id="right_46" type="Car" color="yellow" route="right" departSpeed="desired" depart="87" />
    <vehicle id="up_47" type="Car" color="yellow" route="up" departSpeed="desired" depart="88" />
    <vehicle id="left_48" type="Car" color="yellow" route="left" departSpeed="desired" depart="88" />
    <vehicle id="right_49" type="Car" color="yellow" route="right" departSpeed="desired" depart="89" />
    <vehicle id="down_50" type="Car" color="yellow" route="down" departSpeed="desired" depart="90" />
    <vehicle id="up_51" type="Car" color="yellow" route="up" departSpeed="desired" depart="92" />
    <vehicle id="right_52" type="Car" color="yellow" route="right" departSpeed="desired" depart="93" />
    <vehicle id="left_53" type="Car" color="yellow" route="left" departSpeed="desired" depart="93" />
    <vehicle id="right_54" type="Car" color="yellow" route="right" departSpeed="desired" depart="94" />
    <vehicle id="up_55" type="Car" color="yellow" route="up" departSpeed="desired" depart="96" />
    <vehicle id="right_56" type="Car" color="yellow" route="right" departSpeed="desired" depart="97" />
    <vehicle id="up_57" type="Car" color="yellow" route="up" departSpeed="desired" depart="97" />
    <vehicle id="left_58" type="Car" color="yellow" route="left" departSpeed="desired" depart="97" />
    <vehicle id="up_59" type="Car" color="yellow" route="up" departSpeed="desired" depart="101" />
    <vehicle id="right_60" type="Car" color="yellow" route="right" departSpeed="desired" depart="104" />
    <vehicle id="down_61" type="Car" color="yellow" route="down" departSpeed="desired" depart="105" />
    <vehicle id="left_62_flaw" type="Car" color="blue" route="left" departSpeed="desired" depart="107" />
    <vehicle id="up_63" type="Car" color="yellow" route="up" departSpeed="desired" depart="107" />
    <vehicle id="left_64" type="Car" color="yellow" route="left" departSpeed="desired" depart="109" />
    <vehicle id="right_65_flaw" type="Car" color="blue" route="right" departSpeed="desired" depart="113" />
    <vehicle id="left_66_flaw" type="Car" color="blue" route="left" departSpeed="desired" depart="114" />
    <vehicle id="right_67" type="Car" color="yellow" route="right" departSpeed="desired" depart="114" />
    <vehicle id="right_68" type="Car" color="yellow" route="right" departSpeed="desired" depart="116" />
    <vehicle id="down_69" type="Car" color="yellow" route="down" departSpeed="desired" depart="118" />
    <vehicle id="up_70_flaw" type="Car" color="blue" route="up" departSpeed="desired" depart="120" />
    <vehicle id="down_71" type="Car" color="yellow" route="down" departSpeed="desired" depart="121" />
    <vehicle id="down_72" type="Car" color="yellow" route="down" departSpeed="desired" depart="122" />
    <vehicle id="down_73_flaw" type="Car" color="blue" route="down" departSpeed="desired" depart="124" />
    <vehicle id="left_74" type="Car" color="yellow" route="left" departSpeed="desired" depart="139" />
    <vehicle id="down_75_flaw" type="Car" color="blue" route="down" departSpeed="desired" depart="140" />
    <vehicle id="up_76" type="Car" color="yellow" route="up" departSpeed="desired" depart="144" />
    <vehicle id="down_77" type="Car" color="yellow" route="down" departSpeed="desired" depart="147" />
    <vehicle id="up_78" type="Car" color="yellow" route="up" departSpeed="desired" depart="149" />
    <vehicle id="right_79" type="Car" color="yellow" route="right" departSpeed="desired" depart="152" />
    <vehicle id="up_80" type="Car" color="yellow" route="up" departSpeed="desired" depart="153" />
    <vehicle id="down_81" type="Car" color="yellow" route="down" departSpeed="desired" depart="159" />
    <vehicle id="right_82_flaw" type="Car" color="blue" route="right" departSpeed="desired" depart="161" />
    <vehicle id="left_83" type="Car" color="yellow" route="left" departSpeed="desired" depart="161" />
    <vehicle id="right_84" type="Car" color="yellow" route="right" departSpeed="desired" depart="164" />
    <vehicle id="left_85" type="Car" color="yellow" route="left" departSpeed="desired" depart="165" />
    <vehicle id="up_86" type="Car" color="yellow" route="up" departSpeed="desired" depart="166" />
    <vehicle id="left_87" type="Car" color="yellow" route="left" departSpeed="desired" depart="166" />
    <vehicle id="up_88" type="Car" color="yellow" route="up" departSpeed="desired" depart="168" />
    <vehicle id="up_89" type="Car" color="yellow" route="up" departSpeed="desired" depart="170" />
    <vehicle id="down_90" type="Car" color="yellow" route="down" departSpeed="desired" depart="171" />
    <vehicle id="left_91" type="Car" color="yellow" route="left" departSpeed="desired" depart="172" />
    <vehicle id="up_92" type="Car" color="yellow" route="up" departSpeed="desired" depart="173" />
    <vehicle id="right_93" type="Car" color="yellow" route="right" departSpeed="desired" depart="174" />
    <vehicle id="down_94" type="Car" color="yellow" route="down" departSpeed="desired" depart="177" />
    <vehicle id="left_95" type="Car" color="yellow" route="left" departSpeed="desired" depart="187" />
    <vehicle id="left_96" type="Car" color="yellow" route="left" departSpeed="desired" depart="189" />
    <vehicle id="right_97" type="Car" color="yellow" route="right" departSpeed="desired" depart="193" />
    <vehicle id="right_98" type="Car" color="yellow" route="right" departSpeed="desired" depart="199" />
    <vehicle id="left_99" type="Car" color="yellow" route="left" departSpeed="desired" depart="200" />
    <vehicle id="down_100_flaw" type="Car" color="blue" route="down" departSpeed="desired" depart="203" />
    <vehicle id="down_101" type="Car" color="yellow" route="down" departSpeed="desired" depart="203" />
    <vehicle id="right_102" type="Car" color="yellow" route="right" departSpeed="desired" depart="205" />
    <vehicle id="left_103" type="Car" color="yellow" route="left" departSpeed="desired" depart="206" />
    <vehicle id="left_104_flaw" type="Car" color="blue" route="left" departSpeed="desired" depart="207" />
    <vehicle id="down_105_flaw" type="Car" color="blue" route="down" departSpeed="desired" depart="212" />
    <vehicle id="up_106" type="Car" color="yellow" route="up" departSpeed="desired" depart="213" />
    <vehicle id="up_107_flaw" type="Car" color="blue" route="up" departSpeed="desired" depart="217" />
    <vehicle id="left_108" type="Car" color="yellow" route="left" departSpeed="desired" depart="217" />
    <vehicle id="right_109" type="Car" color="yellow" route="right" departSpeed="desired" depart="218" />
    <vehicle id="right_110" type="Car" color="yellow" route="right" departSpeed="desired" depart="219" />
    <vehicle id="down_111" type="Car" color="yellow" route="down" departSpeed="desired" depart="228" />
    <vehicle id="left_112" type="Car" color="yellow" route="left" departSpeed="desired" depart="228" />
    <vehicle id="left_113" type="Car" color="yellow" route="left" departSpeed="desired" depart="229" />
    <vehicle id="right_114" type="Car" color="yellow" route="right" departSpeed="desired" depart="230" />
    <vehicle id="up_115" type="Car" color="yellow" route="up" departSpeed="desired" depart="230" />
    <vehicle id="right_116" type="Car" color="yellow" route="right" departSpeed="desired" depart="231" />
    <vehicle id="up_117" type="Car" color="yellow" route="up" departSpeed="desired" depart="232" />
    <vehicle id="right_118" type="Car" color="yellow" route="right" departSpeed="desired" depart="233" />
    <vehicle id="left_119" type="Car" color="yellow" route="left" departSpeed="desired" depart="237" />
    <vehicle id="right_120" type="Car" color="yellow" route="right" departSpeed="desired" depart="238" />
    <vehicle id="right_121" type="Car" color="yellow" route="right" departSpeed="desired" depart="239" />
    <vehicle id="down_122" type="Car" color="yellow" route="down" departSpeed="desired" depart="247" />
    <vehicle id="up_123" type="Car" color="yellow" route="up" departSpeed="desired" depart="247" />
    <vehicle id="down_124" type="Car" color="yellow" route="down" departSpeed="desired" depart="250" />
    <vehicle id="right_125_flaw" type="Car" color="blue" route="right" departSpeed="desired" depart="251" />
    <vehicle id="up_126" type="Car" color="yellow" route="up" departSpeed="desired" depart="253" />
    <vehicle id="right_127" type="Car" color="yellow" route="right" departSpeed="desired" depart="254" />
    <vehicle id="up_128" type="Car" color="yellow" route="up" departSpeed="desired" depart="254" />
    <vehicle id="down_129" type="Car" color="yellow" route="down" departSpeed="desired" depart="256" />
    <vehicle id="up_130" type="Car" color="yellow" route="up" departSpeed="desired" depart="257" />
    <vehicle id="down_131" type="Car" color="yellow" route="down" departSpeed="desired" depart="259" />
    <vehicle id="right_132_flaw" type="Car" color="blue" route="right" departSpeed="desired" depart="261" />
    <vehicle id="up_133" type="Car" color="yellow" route="up" departSpeed="desired" depart="261" />
    <vehicle id="up_134" type="Car" color="yellow" route="up" departSpeed="desired" depart="265" />
    <vehicle id="right_135" type="Car" color="yellow" route="right" departSpeed="desired" depart="271" />
    <vehicle id="up_136" type="Car" color="yellow" route="up" departSpeed="desired" depart="272" />
    <vehicle id="down_137" type="Car" color="yellow" route="down" departSpeed="desired" depart="273" />
    <vehicle id="up_138" type="Car" color="yellow" route="up" departSpeed="desired" depart="273" />
    <vehicle id="left_139" type="Car" color="yellow" route="left" departSpeed="desired" depart="274" />
    <vehicle id="up_140" type="Car" color="yellow" route="up" departSpeed="desired" depart="277" />
    <vehicle id="down_141" type="Car" color="yellow" route="down" departSpeed="desired" depart="278" />
    <vehicle id="left_142" type="Car" color="yellow" route="left" departSpeed="desired" depart="278" />
    <vehicle id="up_143" type="Car" color="yellow" route="up" departSpeed="desired" depart="280" />
    <vehicle id="down_144" type="Car" color="yellow" route="down" departSpeed="desired" depart="281" />
    <vehicle id="left_145" type="Car" color="yellow" route="left" departSpeed="desired" depart="283" />
    <vehicle id="left_146" type="Car" color="yellow" route="left" departSpeed="desired" depart="284" />
    <vehicle id="left_147" type="Car" color="yellow" route="left" departSpeed="desired" depart="289" />
    <vehicle id="up_148" type="Car" color="yellow" route="up" departSpeed="desired" depart="290" />
    <vehicle id="up_149" type="Car" color="yellow" route="up" departSpeed="desired" depart="292" />
    <vehicle id="left_150_flaw" type="Car" color="blue" route="left" departSpeed="desired" depart="293" />
    <vehicle id="right_151" type="Car" color="yellow" route="right" departSpeed="desired" depart="300" />
    <vehicle id="down_152" type="Car" color="yellow" route="down" departSpeed="desired" depart="301" />
    <vehicle id="left_153" type="Car" color="yellow" route="left" departSpeed="desired" depart="301" />
    <vehicle id="down_154" type="Car" color="yellow" route="down" departSpeed="desired" depart="304" />
    <vehicle id="up_155_flaw" type="Car" color="blue" route="up" departSpeed="desired" depart="306" />
    <vehicle id="left_156" type="Car" color="yellow" route="left" departSpeed="desired" depart="307" />
    <vehicle id="up_157" type="Car" color="yellow" route="up" departSpeed="desired" depart="308" />
    <vehicle id="right_158" type="Car" color="yellow" route="right" departSpeed="desired" depart="313" />
    <vehicle id="down_159" type="Car" color="yellow" route="down" departSpeed="desired" depart="313" />
    <vehicle id="right_160_flaw" type="Car" color="blue" route="right" departSpeed="desired" depart="315" />
    <vehicle id="left_161" type="Car" color="yellow" route="left" departSpeed="desired" depart="315" />
    <vehicle id="right_162" type="Car" color="yellow" route="right" departSpeed="desired" depart="316" />
    <vehicle id="up_163" type="Car" color="yellow" route="up" departSpeed="desired" depart="316" />
    <vehicle id="right_164" type="Car" color="yellow" route="right" departSpeed="desired" depart="318" />
    <vehicle id="right_165" type="Car" color="yellow" route="right" departSpeed="desired" depart="319" />
    <vehicle id="down_166" type="Car" color="yellow" route="down" departSpeed="desired" depart="322" />
    <vehicle id="down_167" type="Car" color="yellow" route="down" departSpeed="desired" depart="326" />
    <vehicle id="left_168" type="Car" color="yellow" route="left" departSpeed="desired" depart="330" />
    <vehicle id="right_169" type="Car" color="yellow" route="right" departSpeed="desired" depart="332" />
    <vehicle id="down_170_flaw" type="Car" color="blue" route="down" departSpeed="desired" depart="335" />
    <vehicle id="up_171" type="Car" color="yellow" route="up" departSpeed="desired" depart="335" />
    <vehicle id="down_172_flaw" type="Car" color="blue" route="down" departSpeed="desired" depart="336" />
    <vehicle id="left_173" type="Car" color="yellow" route="left" departSpeed="desired" depart="336" />
    <vehicle id="down_174" type="Car" color="yellow" route="down" departSpeed="desired" depart="343" />
    <vehicle id="down_175" type="Car" color="yellow" route="down" departSpeed="desired" depart="344" />
    <vehicle id="left_176" type="Car" color="yellow" route="left" departSpeed="desired" depart="348" />
    <vehicle id="right_177" type="Car" color="yellow" route="right" departSpeed="desired" depart="349" />
    <vehicle id="down_178" type="Car" color="yellow" route="down" departSpeed="desired" depart="352" />
    <vehicle id="up_179" type="Car" color="yellow" route="up" departSpeed="desired" depart="353" />
    <vehicle id="up_180" type="Car" color="yellow" route="up" departSpeed="desired" depart="354" />
    <vehicle id="right_181" type="Car" color="yellow" route="right" departSpeed="desired" depart="356" />
    <vehicle id="up_182" type="Car" color="yellow" route="up" departSpeed="desired" depart="357" />
    <vehicle id="left_183" type="Car" color="yellow" route="left" departSpeed="desired" depart="357" />
    <vehicle id="down_184" type="Car" color="yellow" route="down" departSpeed="desired" depart="365" />
    <vehicle id="right_185" type="Car" color="yellow" route="right" departSpeed="desired" depart="366" />
    <vehicle id="left_186" type="Car" color="yellow" route="left" departSpeed="desired" depart="368" />
    <vehicle id="left_187" type="Car" color="yellow" route="left" departSpeed="desired" depart="369" />
    <vehicle id="left_188" type="Car" color="yellow" route="left" departSpeed="desired" depart="370" />
    <vehicle id="left_189" type="Car" color="yellow" route="left" departSpeed="desired" depart="376" />
    <vehicle id="right_190" type="Car" color="yellow" route="right" departSpeed="desired" depart="377" />
    <vehicle id="up_191" type="Car" color="yellow" route="up" departSpeed="desired" depart="378" />
    <vehicle id="down_192" type="Car" color="yellow" route="down" departSpeed="desired" depart="380" />
    <vehicle id="up_193" type="Car" color="yellow" route="up" departSpeed="desired" depart="381" />
    <vehicle id="up_194" type="Car" color="yellow" route="up" departSpeed="desired" depart="382" />
    <vehicle id="right_195" type="Car" color="yellow" route="right" departSpeed="desired" depart="395" />
    <vehicle id="down_196_flaw" type="Car" color="blue" route="down" departSpeed="desired" depart="396" />
    <vehicle id="up_197" type="Car" color="yellow" route="up" departSpeed="desired" depart="396" />
    <vehicle id="left_198" type="Car" color="yellow" route="left" departSpeed="desired" depart="396" />
    <vehicle id="left_199" type="Car" color="yellow" route="left" departSpeed="desired" depart="399" />
    <vehicle id="left_200_flaw" type="Car" color="blue" route="left" departSpeed="desired" depart="400" />
    <vehicle id="up_201" type="Car" color="yellow" route="up" departSpeed="desired" depart="407" />
    <vehicle id="down_202" type="Car" color="yellow" route="down" departSpeed="desired" depart="408" />
    <vehicle id="down_203" type="Car" color="yellow" route="down" departSpeed="desired" depart="409" />
    <vehicle id="left_204_flaw" type="Car" color="blue" route="left" departSpeed="desired" depart="410" />
    <vehicle id="left_205" type="Car" color="yellow" route="left" departSpeed="desired" depart="411" />
    <vehicle id="left_206" type="Car" color="yellow" route="left" departSpeed="desired" depart="413" />
    <vehicle id="left_207_flaw" type="Car" color="blue" route="left" departSpeed="desired" depart="420" />
    <vehicle id="down_208" type="Car" color="yellow" route="down" departSpeed="desired" depart="420" />
    <vehicle id="right_209" type="Car" color="yellow" route="right" departSpeed="desired" depart="422" />
    <vehicle id="down_210" type="Car" color="yellow" route="down" departSpeed="desired" depart="429" />
    <vehicle id="left_211" type="Car" color="yellow" route="left" departSpeed="desired" depart="429" />
    <vehicle id="right_212_flaw" type="Car" color="blue" route="right" departSpeed="desired" depart="432" />
    <vehicle id="down_213" type="Car" color="yellow" route="down" departSpeed="desired" depart="432" />
    <vehicle id="left_214" type="Car" color="yellow" route="left" departSpeed="desired" depart="432" />
    <vehicle id="right_215" type="Car" color="yellow" route="right" departSpeed="desired" depart="441" />
    <vehicle id="down_216" type="Car" color="yellow" route="down" departSpeed="desired" depart="441" />
    <vehicle id="right_217" type="Car" color="yellow" route="right" departSpeed="desired" depart="442" />
    <vehicle id="left_218" type="Car" color="yellow" route="left" departSpeed="desired" depart="445" />
    <vehicle id="right_219" type="Car" color="yellow" route="right" departSpeed="desired" depart="447" />
    <vehicle id="up_220" type="Car" color="yellow" route="up" departSpeed="desired" depart="448" />
    <vehicle id="right_221" type="Car" color="yellow" route="right" departSpeed="desired" depart="449" />
    <vehicle id="down_222" type="Car" color="yellow" route="down" departSpeed="desired" depart="449" />
    <vehicle id="right_223" type="Car" color="yellow" route="right" departSpeed="desired" depart="459" />
    <vehicle id="left_224" type="Car" color="yellow" route="left" departSpeed="desired" depart="459" />
    <vehicle id="left_225" type="Car" color="yellow" route="left" departSpeed="desired" depart="461" />
    <vehicle id="right_226" type="Car" color="yellow" route="right" departSpeed="desired" depart="462" />
    <vehicle id="right_227" type="Car" color="yellow" route="right" departSpeed="desired" depart="467" />
    <vehicle id="down_228" type="Car" color="yellow" route="down" departSpeed="desired" depart="468" />
    <vehicle id="down_229" type="Car" color="yellow" route="down" departSpeed="desired" depart="469" />
    <vehicle id="up_230_flaw" type="Car" color="blue" route="up" departSpeed="desired" depart="473" />
    <vehicle id="right_231" type="Car" color="yellow" route="right" departSpeed="desired" depart="475" />
    <vehicle id="down_232_flaw" type="Car" color="blue" route="down" departSpeed="desired" depart="476" />
    <vehicle id="up_233" type="Car" color="yellow" route="up" departSpeed="desired" depart="479" />
    <vehicle id="down_234" type="Car" color="yellow" route="down" departSpeed="desired" depart="483" />
    <vehicle id="left_235" type="Car" color="yellow" route="left" departSpeed="desired" depart="484" />
    <vehicle id="right_236" type="Car" color="yellow" route="right" departSpeed="desired" depart="486" />
    <vehicle id="down_237" type="Car" color="yellow" route="down" departSpeed="desired" depart="487" />
    <vehicle id="up_238" type="Car" color="yellow" route="up" departSpeed="desired" depart="488" />
    <vehicle id="right_239" type="Car" color="yellow" route="right" departSpeed="desired" depart="491" />
    <vehicle id="up_240" type="Car" color="yellow" route="up" departSpeed="desired" depart="494" />
    <vehicle id="left_241_flaw" type="Car" color="blue" route="left" departSpeed="desired" depart="498" />
    <vehicle id="down_242" type="Car" color="yellow" route="down" departSpeed="desired" depart="499" />
    <vehicle id="up_243" type="Car" color="yellow" route="up" departSpeed="desired" depart="500" />
    <vehicle id="left_244" type="Car" color="yellow" route="left" departSpeed="desired" depart="500" />
    <vehicle id="up_245" type="Car" color="yellow" route="up" departSpeed="desired" depart="502" />
    <vehicle id="left_246" type="Car" color="yellow" route="left" departSpeed="desired" depart="503" />
    <vehicle id="up_247" type="Car" color="yellow" route="up" departSpeed="desired" depart="506" />
    <vehicle id="down_248" type="Car" color="yellow" route="down" departSpeed="desired" depart="509" />
    <vehicle id="down_249" type="Car" color="yellow" route="down" departSpeed="desired" depart="510" />
    <vehicle id="right_250" type="Car" color="yellow" route="right" departSpeed="desired" depart="513" />
    <vehicle id="up_251" type="Car" color="yellow" route="up" departSpeed="desired" depart="517" />
    <vehicle id="up_252" type="Car" color="yellow" route="up" departSpeed="desired" depart="522" />
    <vehicle id="right_253" type="Car" color="yellow" route="right" departSpeed="desired" depart="524" />
    <vehicle id="left_254" type="Car" color="yellow" route="left" departSpeed="desired" depart="524" />
    <vehicle id="right_255" type="Car" color="yellow" route="right" departSpeed="desired" depart="525" />
    <vehicle id="down_256" type="Car" color="yellow" route="down" departSpeed="desired" depart="533" />
    <vehicle id="up_257" type="Car" color="yellow" route="up" departSpeed="desired" depart="533" />
    <vehicle id="left_258" type="Car" color="yellow" route="left" departSpeed="desired" depart="534" />
    <vehicle id="up_259_flaw" type="Car" color="blue" route="up" departSpeed="desired" depart="535" />
    <vehicle id="right_260" type="Car" color="yellow" route="right" departSpeed="desired" depart="539" />
    <vehicle id="down_261" type="Car" color="yellow" route="down" departSpeed="desired" depart="541" />
    <vehicle id="left_262" type="Car" color="yellow" route="left" departSpeed="desired" depart="541" />
    <vehicle id="down_263" type="Car" color="yellow" route="down" departSpeed="desired" depart="545" />
    <vehicle id="down_264" type="Car" color="yellow" route="down" departSpeed="desired" depart="547" />
    <vehicle id="down_265_flaw" type="Car" color="blue" route="down" departSpeed="desired" depart="548" />
    <vehicle id="up_266" type="Car" color="yellow" route="up" departSpeed="desired" depart="548" />
    <vehicle id="down_267" type="Car" color="yellow" route="down" departSpeed="desired" depart="553" />
    <vehicle id="up_268" type="Car" color="yellow" route="up" departSpeed="desired" depart="554" />
    <vehicle id="right_269" type="Car" color="yellow" route="right" departSpeed="desired" depart="555" />
    <vehicle id="up_270" type="Car" color="yellow" route="up" departSpeed="desired" depart="556" />
    <vehicle id="up_271" type="Car" color="yellow" route="up" departSpeed="desired" depart="557" />
    <vehicle id="left_272" type="Car" color="yellow" route="left" departSpeed="desired" depart="557" />
    <vehicle id="up_273_flaw" type="Car" color="blue" route="up" departSpeed="desired" depart="559" />
    <vehicle id="left_274_flaw" type="Car" color="blue" route="left" departSpeed="desired" depart="560" />
    <vehicle id="right_275" type="Car" color="yellow" route="right" departSpeed="desired" depart="564" />
    <vehicle id="right_276" type="Car" color="yellow" route="right" departSpeed="desired" depart="573" />
    <vehicle id="down_277" type="Car" color="yellow" route="down" departSpeed="desired" depart="573" />
    <vehicle id="right_278" type="Car" color="yellow" route="right" departSpeed="desired" depart="577" />
    <vehicle id="left_279" type="Car" color="yellow" route="left" departSpeed="desired" depart="578" />
    <vehicle id="right_280" type="Car" color="yellow" route="right" departSpeed="desired" depart="579" />
    <vehicle id="left_281_flaw" type="Car" color="blue" route="left" departSpeed="desired" depart="580" />
    <vehicle id="right_282" type="Car" color="yellow" route="right" departSpeed="desired" depart="580" />
    <vehicle id="right_283" type="Car" color="yellow" route="right" departSpeed="desired" depart="582" />
    <vehicle id="right_284" type="Car" color="yellow" route="right" departSpeed="desired" depart="583" />
    <vehicle id="up_285" type="Car" color="yellow" route="up" departSpeed="desired" depart="586" />