<routes>
      <vType id="Car" length="5.00" minGap="2.50" maxSpeed="16.67" guiShape="passenger" carFollowModel="IDM" accel="0.8" decel="4.5" tau="1.0"/>
            
    <route id="right1"  edges="1to2 2to3 outr1" />
    <route id="left1"  edges="8to7 7to6 outl1" />
    <route id="down1"  edges="9to2 2to6 outs1" />
    <route id="up1"  edges="12to7 7to3 outn1" />
    <vehicle id="down1_0" type="Car" color="yellow" route="down1" departSpeed="desired" depart="0" />
    <vehicle id="down1_1" type="Car" color="yellow" route="down1" departSpeed="desired" depart="3" />
    <vehicle id="up1_2" type="Car" color="yellow" route="up1" departSpeed="desired" depart="3" />
    <vehicle id="right1_3" type="Car" color="yellow" route="right1" departSpeed="desired" depart="8" />
    <vehicle id="down1_4" type="Car" color="yellow" route="down1" departSpeed="desired" depart="8" />
    <vehicle id="left1_5" type="Car" color="yellow" route="left1" departSpeed="desired" depart="8" />
    <vehicle id="down1_6" type="Car" color="yellow" route="down1" departSpeed="desired" depart="9" />
    <vehicle id="left1_7" type="Car" color="yellow" route="left1" departSpeed="desired" depart="11" />
    <vehicle id="right1_8" type="Car" color="yellow" route="right1" departSpeed="desired" depart="12" />
    <vehicle id="up1_9" type="Car" color="yellow" route="up1" departSpeed="desired" depart="14" />
    <vehicle id="right1_10" type="Car" color="yellow" route="right1" departSpeed="desired" depart="18" />
    <vehicle id="right1_11" type="Car" color="yellow" route="right1" departSpeed="desired" depart="29" />
    <vehicle id="right1_12" type="Car" color="yellow" route="right1" departSpeed="desired" depart="31" />
    <vehicle id="up1_13" type="Car" color="yellow" route="up1" departSpeed="desired" depart="31" />
    <vehicle id="up1_14" type="Car" color="yellow" route="up1" departSpeed="desired" depart="32" />
    <vehicle id="down1_15" type="Car" color="yellow" route="down1" departSpeed="desired" depart="35" />
    <vehicle id="left1_16" type="Car" color="yellow" route="left1" departSpeed="desired" depart="40" />
    <vehicle id="down1_17" type="Car" color="yellow" route="down1" departSpeed="desired" depart="44" />
    <vehicle id="down1_18" type="Car" color="yellow" route="down1" departSpeed="desired" depart="46" />
    <vehicle id="down1_19" type="Car" color="yellow" route="down1" departSpeed="desired" depart="50" />
    <vehicle id="up1_20" type="Car" color="yellow" route="up1" departSpeed="desired" depart="50" />
    <vehicle id="right1_21" type="Car" color="yellow" route="right1" departSpeed="desired" depart="57" />
    <vehicle id="left1_22" type="Car" color="yellow" route="left1" departSpeed="desired" depart="58" />
    <vehicle id="up1_23" type="Car" color="yellow" route="up1" departSpeed="desired" depart="60" />
    <vehicle id="right1_24" type="Car" color="yellow" route="right1" departSpeed="desired" depart="61" />
    <vehicle id="down1_25" type="Car" color="yellow" route="down1" departSpeed="desired" depart="63" />
    <vehicle id="right1_26" type="Car" color="yellow" route="right1" departSpeed="desired" depart="66" />
    <vehicle id="down1_27" type="Car" color="yellow" route="down1" departSpeed="desired" depart="69" />
    <vehicle id="right1_28" type="Car" color="yellow" route="right1" departSpeed="desired" depart="70" />
    <vehicle id="left1_29" type="Car" color="yellow" route="left1" departSpeed="desired" depart="75" />
    <vehicle id="down1_30" type="Car" color="yellow" route="down1" departSpeed="desired" depart="76" />
    <vehicle id="down1_31" type="Car" color="yellow" route="down1" departSpeed="desired" depart="81" />
    <vehicle id="right1_32" type="Car" color="yellow" route="right1" departSpeed="desired" depart="83" />
    <vehicle id="up1_33" type="Car" color="yellow" route="up1" departSpeed="desired" depart="84" />
    <vehicle id="left1_34" type="Car" color="yellow" route="left1" departSpeed="desired" depart="85" />
    <vehicle id="right1_35" type="Car" color="yellow" route="right1" departSpeed="desired" depart="86" />
    <vehicle id="left1_36" type="Car" color="yellow" route="left1" departSpeed="desired" depart="86" />
    <vehicle id="right1_37" type="Car" color="yellow" route="right1" departSpeed="desired" depart="88" />
    <vehicle id="left1_38" type="Car" color="yellow" route="left1" departSpeed="desired" depart="92" />
    <vehicle id="left1_39" type="Car" color="yellow" route="left1" departSpeed="desired" depart="93" />
    <vehicle id="down1_40" type="Car" color="yellow" route="down1" departSpeed="desired" depart="96" />
    <vehicle id="right1_41" type="Car" color="yellow" route="right1" departSpeed="desired" depart="100" />
    <vehicle id="left1_42" type="Car" color="yellow" route="left1" departSpeed="desired" depart="101" />
    <vehicle id="down1_43" type="Car" color="yellow" route="down1" departSpeed="desired" depart="103" />
    <vehicle id="up1_44" type="Car" color="yellow" route="up1" departSpeed="desired" depart="103" />
    <vehicle id="right1_45" type="Car" color="yellow" route="right1" departSpeed="desired" depart="104" />
    <vehicle id="up1_46" type="Car" color="yellow" route="up1" departSpeed="desired" depart="106" />
    <vehicle id="left1_47" type="Car" color="yellow" route="left1" departSpeed="desired" depart="106" />
    <vehicle id="down1_48" type="Car" color="yellow" route="down1" departSpeed="desired" depart="110" />
    <vehicle id="right1_49" type="Car" color="yellow" route="right1" departSpeed="desired" depart="111" />
    <vehicle id="right1_50" type="Car" color="yellow" route="right1" departSpeed="desired" depart="112" />
    <vehicle id="right1_51" type="Car" color="yellow" route="right1" departSpeed="desired" depart="117" />
    <vehicle id="left1_52" type="Car" color="yellow" route="left1" departSpeed="desired" depart="117" />
    <vehicle id="right1_53" type="Car" color="yellow" route="right1" departSpeed="desired" depart="118" />
    <vehicle id="left1_54" type="Car" color="yellow" route="left1" departSpeed="desired" depart="119" />
    <vehicle id="down1_55" type="Car" color="yellow" route="down1" departSpeed="desired" depart="121" />
    <vehicle id="up1_56" type="Car" color="yellow" route="up1" departSpeed="desired" depart="121" />
    <vehicle id="up1_57" type="Car" color="yellow" route="up1" departSpeed="desired" depart="122" />
    <vehicle id="down1_58" type="Car" color="yellow" route="down1" departSpeed="desired" depart="123" />
    <vehicle id="left1_59" type="Car" color="yellow" route="left1" departSpeed="desired" depart="123" />
    <vehicle id="down1_60" type="Car" color="yellow" route="down1" departSpeed="desired" depart="125" />
    <vehicle id="left1_61" type="Car" color="yellow" route="left1" departSpeed="desired" depart="126" />
    <vehicle id="up1_62" type="Car" color="yellow" route="up1" departSpeed="desired" depart="129" />
    <vehicle id="right1_63" type="Car" color="yellow" route="right1" departSpeed="desired" depart="132" />
    <vehicle id="right1_64" type="Car" color="yellow" route="right1" departSpeed="desired" depart="136" />
    <vehicle id="down1_65" type="Car" color="yellow" route="down1" departSpeed="desired" depart="136" />
    <vehicle id="left1_66" type="Car" color="yellow" route="left1" departSpeed="desired" depart="137" />
    <vehicle id="right1_67" type="Car" color="yellow" route="right1" departSpeed="desired" depart="140" />
    <vehicle id="left1_68" type="Car" color="yellow" route="left1" departSpeed="desired" depart="142" />
    <vehicle id="left1_69" type="Car" color="yellow" route="left1" departSpeed="desired" depart="144" />
    <vehicle id="up1_70" type="Car" color="yellow" route="up1" departSpeed="desired" depart="147" />
    <vehicle id="left1_71" type="Car" color="yellow" route="left1" departSpeed="desired" depart="148" />
    <vehicle id="up1_72" type="Car" color="yellow" route="up1" departSpeed="desired" depart="167" />
    <vehicle id="up1_73" type="Car" color="yellow" route="up1" departSpeed="desired" depart="168" />
    <vehicle id="right1_74" type="Car" color="yellow" route="right1" departSpeed="desired" depart="170" />
    <vehicle id="right1_75" type="Car" color="yellow" route="right1" departSpeed="desired" depart="171" />
    <vehicle id="left1_76" type="Car" color="yellow" route="left1" departSpeed="desired" depart="171" />
    <vehicle id="right1_77" type="Car" color="yellow" route="right1" departSpeed="desired" depart="173" />
    <vehicle id="up1_78" type="Car" color="yellow" route="up1" departSpeed="desired" depart="177" />
    <vehicle id="down1_79" type="Car" color="yellow" route="down1" departSpeed="desired" depart="178" />
    <vehicle id="right1_80" type="Car" color="yellow" route="right1" departSpeed="desired" depart="179" />
    <vehicle id="down1_81" type="Car" color="yellow" route="down1" departSpeed="desired" depart="187" />
    <vehicle id="down1_82" type="Car" color="yellow" route="down1" departSpeed="desired" depart="189" />
    <vehicle id="down1_83" type="Car" color="yellow" route="down1" departSpeed="desired" depart="191" />
    <vehicle id="down1_84" type="Car" color="yellow" route="down1" departSpeed="desired" depart="193" />
    <vehicle id="right1_85" type="Car" color="yellow" route="right1" departSpeed="desired" depart="195" />
    <vehicle id="right1_86" type="Car" color="yellow" route="right1" departSpeed="desired" depart="198" />
    <vehicle id="right1_87" type="Car" color="yellow" route="right1" departSpeed="desired" depart="201" />
    <vehicle id="down1_88" type="Car" color="yellow" route="down1" departSpeed="desired" depart="203" />
    <vehicle id="left1_89" type="Car" color="yellow" route="left1" departSpeed="desired" depart="205" />
    <vehicle id="left1_90" type="Car" color="yellow" route="left1" departSpeed="desired" depart="206" />
    <vehicle id="down1_91" type="Car" color="yellow" route="down1" departSpeed="desired" depart="208" />
    <vehicle id="down1_92" type="Car" color="yellow" route="down1" departSpeed="desired" depart="209" />
    <vehicle id="right1_93" type="Car" color="yellow" route="right1" departSpeed="desired" depart="210" />
    <vehicle id="down1_94" type="Car" color="yellow" route="down1" departSpeed="desired" depart="213" />
    <vehicle id="right1_95" type="Car" color="yellow" route="right1" departSpeed="desired" depart="218" />
    <vehicle id="down1_96" type="Car" color="yellow" route="down1" departSpeed="desired" depart="226" />
    <vehicle id="left1_97" type="Car" color="yellow" route="left1" departSpeed="desired" depart="228" />
    <vehicle id="right1_98" type="Car" color="yellow" route="right1" departSpeed="desired" depart="236" />
    <vehicle id="right1_99" type="Car" color="yellow" route="right1" departSpeed="desired" depart="240" />
    <vehicle id="left1_100" type="Car" color="yellow" route="left1" departSpeed="desired" depart="244" />
    <vehicle id="up1_101" type="Car" color="yellow" route="up1" departSpeed="desired" depart="249" />
    <vehicle id="left1_102" type="Car" color="yellow" route="left1" departSpeed="desired" depart="255" />
    <vehicle id="up1_103" type="Car" color="yellow" route="up1" departSpeed="desired" depart="259" />
    <vehicle id="left1_104" type="Car" color="yellow" route="left1" departSpeed="desired" depart="262" />
    <vehicle id="down1_105" type="Car" color="yellow" route="down1" departSpeed="desired" depart="263" />
    <vehicle id="up1_106" type="Car" color="yellow" route="up1" departSpeed="desired" depart="264" />
    <vehicle id="up1_107" type="Car" color="yellow" route="up1" departSpeed="desired" depart="275" />
    <vehicle id="right1_108" type="Car" color="yellow" route="right1" departSpeed="desired" depart="277" />
    <vehicle id="left1_109" type="Car" color="yellow" route="left1" departSpeed="desired" depart="277" />
    <vehicle id="right1_110" type="Car" color="yellow" route="right1" departSpeed="desired" depart="278" />
    <vehicle id="up1_111" type="Car" color="yellow" route="up1" departSpeed="desired" depart="278" />
    <vehicle id="up1_112" type="Car" color="yellow" route="up1" departSpeed="desired" depart="280" />
    <vehicle id="down1_113" type="Car" color="yellow" route="down1" departSpeed="desired" depart="281" />
    <vehicle id="down1_114" type="Car" color="yellow" route="down1" departSpeed="desired" depart="283" />
    <vehicle id="left1_115" type="Car" color="yellow" route="left1" departSpeed="desired" depart="286" />
    <vehicle id="down1_116" type="Car" color="yellow" route="down1" departSpeed="desired" depart="287" />
    <vehicle id="up1_117" type="Car" color="yellow" route="up1" departSpeed="desired" depart="288" />
    <vehicle id="down1_118" type="Car" color="yellow" route="down1" departSpeed="desired" depart="289" />
    <vehicle id="down1_119" type="Car" color="yellow" route="down1" departSpeed="desired" depart="298" />
    <vehicle id="up1_120" type="Car" color="yellow" route="up1" departSpeed="desired" depart="298" />
    <vehicle id="left1_121" type="Car" color="yellow" route="left1" departSpeed="desired" depart="302" />
    <vehicle id="right1_122" type="Car" color="yellow" route="right1" departSpeed="desired" depart="310" />
    <vehicle id="up1_123" type="Car" color="yellow" route="up1" departSpeed="desired" depart="311" />
    <vehicle id="up1_124" type="Car" color="yellow" route="up1" departSpeed="desired" depart="312" />
    <vehicle id="right1_125" type="Car" color="yellow" route="right1" departSpeed="desired" depart="314" />
    <vehicle id="up1_126" type="Car" color="yellow" route="up1" departSpeed="desired" depart="315" />
    <vehicle id="down1_127" type="Car" color="yellow" route="down1" departSpeed="desired" depart="320" />
    <vehicle id="right1_128" type="Car" color="yellow" route="right1" departSpeed="desired" depart="327" />
    <vehicle id="left1_129" type="Car" color="yellow" route="left1" departSpeed="desired" depart="328" />
    <vehicle id="left1_130" type="Car" color="yellow" route="left1" departSpeed="desired" depart="329" />
    <vehicle id="down1_131" type="Car" color="yellow" route="down1" departSpeed="desired" depart="330" />
    <vehicle id="down1_132" type="Car" color="yellow" route="down1" departSpeed="desired" depart="331" />
    <vehicle id="left1_133" type="Car" color="yellow" route="left1" departSpeed="desired" depart="334" />
    <vehicle id="left1_134" type="Car" color="yellow" route="left1" departSpeed="desired" depart="335" />
    <vehicle id="right1_135" type="Car" color="yellow" route="right1" departSpeed="desired" depart="336" />
    <vehicle id="down1_136" type="Car" color="yellow" route="down1" departSpeed="desired" depart="338" />
    <vehicle id="down1_137" type="Car" color="yellow" route="down1" departSpeed="desired" depart="339" />
    <vehicle id="right1_138" type="Car" color="yellow" route="right1" departSpeed="desired" depart="342" />
    <vehicle id="down1_139" type="Car" color="yellow" route="down1" departSpeed="desired" depart="343" />
    <vehicle id="left1_140" type="Car" color="yellow" route="left1" departSpeed="desired" depart="344" />
    <vehicle id="down1_141" type="Car" color="yellow" route="down1" departSpeed="desired" depart="349" />
    <vehicle id="down1_142" type="Car" color="yellow" route="down1" departSpeed="desired" depart="350" />
    <vehicle id="left1_143" type="Car" color="yellow" route="left1" departSpeed="desired" depart="352" />
    <vehicle id="down1_144" type="Car" color="yellow" route="down1" departSpeed="desired" depart="353" />
    <vehicle id="left1_145" type="Car" color="yellow" route="left1" departSpeed="desired" depart="353" />
    <vehicle id="down1_146" type="Car" color="yellow" route="down1" departSpeed="desired" depart="358" />
    <vehicle id="right1_147" type="Car" color="yellow" route="right1" departSpeed="desired" depart="369" />
    <vehicle id="right1_148" type="Car" color="yellow" route="right1" departSpeed="desired" depart="371" />
    <vehicle id="right1_149" type="Car" color="yellow" route="right1" departSpeed="desired" depart="372" />
    <vehicle id="left1_150" type="Car" color="yellow" route="left1" departSpeed="desired" depart="377" />
    <vehicle id="right1_151" type="Car" color="yellow" route="right1" departSpeed="desired" depart="380" />
    <vehicle id="right1_152" type="Car" color="yellow" route="right1" departSpeed="desired" depart="381" />
    <vehicle id="up1_153" type="Car" color="yellow" route="up1" departSpeed="desired" depart="382" />
    <vehicle id="up1_154" type="Car" color="yellow" route="up1" departSpeed="desired" depart="384" />
    <vehicle id="left1_155" type="Car" color="yellow" route="left1" departSpeed="desired" depart="384" />
    <vehicle id="left1_156" type="Car" color="yellow" route="left1" departSpeed="desired" depart="386" />
    <vehicle id="down1_157" type="Car" color="yellow" route="down1" departSpeed="desired" depart="388" />
    <vehicle id="right1_158" type="Car" color="yellow" route="right1" departSpeed="desired" depart="392" />
    <vehicle id="up1_159" type="Car" color="yellow" route="up1" departSpeed="desired" depart="392" />
    <vehicle id="right1_160" type="Car" color="yellow" route="right1" departSpeed="desired" depart="393" />
    <vehicle id="down1_161" type="Car" color="yellow" route="down1" departSpeed="desired" depart="393" />
    <vehicle id="up1_162" type="Car" color="yellow" route="up1" departSpeed="desired" depart="400" />
    <vehicle id="left1_163" type="Car" color="yellow" route="left1" departSpeed="desired" depart="404" />
    <vehicle id="down1_164" type="Car" color="yellow" route="down1" departSpeed="desired" depart="405" />
    <vehicle id="down1_165" type="Car" color="yellow" route="down1" departSpeed="desired" depart="407" />
    <vehicle id="left1_166" type="Car" color="yellow" route="left1" departSpeed="desired" depart="408" />
    <vehicle id="left1_167" type="Car" color="yellow" route="left1" departSpeed="desired" depart="410" />
    <vehicle id="right1_168" type="Car" color="yellow" route="right1" departSpeed="desired" depart="412" />
    <vehicle id="up1_169" type="Car" color="yellow" route="up1" departSpeed="desired" depart="413" />
    <vehicle id="left1_170" type="Car" color="yellow" route="left1" departSpeed="desired" depart="423" />
    <vehicle id="down1_171" type="Car" color="yellow" route="down1" departSpeed="desired" depart="425" />
    <vehicle id="up1_172" type="Car" color="yellow" route="up1" departSpeed="desired" depart="426" />
    <vehicle id="left1_173" type="Car" color="yellow" route="left1" departSpeed="desired" depart="427" />
    <vehicle id="down1_174" type="Car" color="yellow" route="down1" departSpeed="desired" depart="428" />
    <vehicle id="right1_175" type="Car" color="yellow" route="right1" departSpeed="desired" depart="429" />
    <vehicle id="down1_176" type="Car" color="yellow" route="down1" departSpeed="desired" depart="438" />
    <vehicle id="up1_177" type="Car" color="yellow" route="up1" departSpeed="desired" depart="440" />
    <vehicle id="down1_178" type="Car" color="yellow" route="down1" departSpeed="desired" depart="444" />
    <vehicle id="right1_179" type="Car" color="yellow" route="right1" departSpeed="desired" depart="445" />
    <vehicle id="down1_180" type="Car" color="yellow" route="down1" departSpeed="desired" depart="446" />
    <vehicle id="left1_181" type="Car" color="yellow" route="left1" departSpeed="desired" depart="448" />
    <vehicle id="up1_182" type="Car" color="yellow" route="up1" departSpeed="desired" depart="450" />
    <vehicle id="left1_183" type="Car" color="yellow" route="left1" departSpeed="desired" depart="452" />
    <vehicle id="down1_184" type="Car" color="yellow" route="down1" departSpeed="desired" depart="455" />
    <vehicle id="up1_185" type="Car" color="yellow" route="up1" departSpeed="desired" depart="455" />
    <vehicle id="right1_186" type="Car" color="yellow" route="right1" departSpeed="desired" depart="462" />
    <vehicle id="left1_187" type="Car" color="yellow" route="left1" departSpeed="desired" depart="463" />
    <vehicle id="right1_188" type="Car" color="yellow" route="right1" departSpeed="desired" depart="468" />
    <vehicle id="up1_189" type="Car" color="yellow" route="up1" departSpeed="desired" depart="471" />
    <vehicle id="right1_190" type="Car" color="yellow" route="right1" departSpeed="desired" depart="473" />
    <vehicle id="down1_191" type="Car" color="yellow" route="down1" departSpeed="desired" depart="473" />
    <vehicle id="up1_192" type="Car" color="yellow" route="up1" departSpeed="desired" depart="473" />
    <vehicle id="down1_193" type="Car" color="yellow" route="down1" departSpeed="desired" depart="474" />
    <vehicle id="up1_194" type="Car" color="yellow" route="up1" departSpeed="desired" depart="476" />
    <vehicle id="right1_195" type="Car" color="yellow" route="right1" departSpeed="desired" depart="478" />
    <vehicle id="down1_196" type="Car" color="yellow" route="down1" departSpeed="desired" depart="478" />
    <vehicle id="down1_197" type="Car" color="yellow" route="down1" departSpeed="desired" depart="482" />
    <vehicle id="up1_198" type="Car" color="yellow" route="up1" departSpeed="desired" depart="496" />
    <vehicle id="up1_199" type="Car" color="yellow" route="up1" departSpeed="desired" depart="506" />
    <vehicle id="up1_200" type="Car" color="yellow" route="up1" departSpeed="desired" depart="508" />
    <vehicle id="left1_201" type="Car" color="yellow" route="left1" departSpeed="desired" depart="508" />
    <vehicle id="left1_202" type="Car" color="yellow" route="left1" departSpeed="desired" depart="511" />
    <vehicle id="right1_203" type="Car" color="yellow" route="right1" departSpeed="desired" depart="516" />
    <vehicle id="up1_204" type="Car" color="yellow" route="up1" departSpeed="desired" depart="521" />
    <vehicle id="right1_205" type="Car" color="yellow" route="right1" departSpeed="desired" depart="532" />
    <vehicle id="down1_206" type="Car" color="yellow" route="down1" departSpeed="desired" depart="532" />
    <vehicle id="down1_207" type="Car" color="yellow" route="down1" departSpeed="desired" depart="533" />
    <vehicle id="up1_208" type="Car" color="yellow" route="up1" departSpeed="desired" depart="537" />
    <vehicle id="down1_209" type="Car" color="yellow" route="down1" departSpeed="desired" depart="539" />
    <vehicle id="left1_210" type="Car" color="yellow" route="left1" departSpeed="desired" depart="541" />
    <vehicle id="right1_211" type="Car" color="yellow" route="right1" departSpeed="desired" depart="546" />
    <vehicle id="right1_212" type="Car" color="yellow" route="right1" departSpeed="desired" depart="552" />
    <vehicle id="left1_213" type="Car" color="yellow" route="left1" departSpeed="desired" depart="553" />
    <vehicle id="down1_214" type="Car" color="yellow" route="down1" departSpeed="desired" depart="554" />
    <vehicle id="left1_215" type="Car" color="yellow" route="left1" departSpeed="desired" depart="556" />
    <vehicle id="down1_216" type="Car" color="yellow" route="down1" departSpeed="desired" depart="557" />
    <vehicle id="right1_217" type="Car" color="yellow" route="right1" departSpeed="desired" depart="558" />
    <vehicle id="down1_218" type="Car" color="yellow" route="down1" departSpeed="desired" depart="559" />
    <vehicle id="down1_219" type="Car" color="yellow" route="down1" departSpeed="desired" depart="563" />
    <vehicle id="left1_220" type="Car" color="yellow" route="left1" departSpeed="desired" depart="564" />
    <vehicle id="down1_221" type="Car" color="yellow" route="down1" departSpeed="desired" depart="570" />
    <vehicle id="left1_222" type="Car" color="yellow" route="left1" departSpeed="desired" depart="570" />
    <vehicle id="left1_223" type="Car" color="yellow" route="left1" departSpeed="desired" depart="571" />
    <vehicle id="right1_224" type="Car" color="yellow" route="right1" departSpeed="desired" depart="572" />
    <vehicle id="down1_225" type="Car" color="yellow" route="down1" departSpeed="desired" depart="573" />
    <vehicle id="down1_226" type="Car" color="yellow" route="down1" departSpeed="desired" depart="578" />
    <vehicle id="up1_227" type="Car" color="yellow" route="up1" departSpeed="desired" depart="584" />
    <vehicle id="down1_228" type="Car" color="yellow" route="down1" departSpeed="desired" depart="586" />
    <vehicle id="left1_229" type="Car" color="yellow" route="left1" departSpeed="desired" depart="587" />
    <vehicle id="right1_230" type="Car" color="yellow" route="right1" departSpeed="desired" depart="589" />
    <vehicle id="down1_231" type="Car" color="yellow" route="down1" departSpeed="desired" depart="592" />
    <vehicle id="down1_232" type="Car" color="yellow" route="down1" departSpeed="desired" depart="596" />
    <vehicle id="up1_233" type="Car" color="yellow" route="up1" departSpeed="desired" depart="600" />
    <vehicle id="down1_234" type="Car" color="yellow" route="down1" departSpeed="desired" depart="602" />
    <vehicle id="up1_235" type="Car" color="yellow" route="up1" departSpeed="desired" depart="602" />
    <vehicle id="right1_236" type="Car" color="yellow" route="right1" departSpeed="desired" depart="605" />
    <vehicle id="up1_237" type="Car" color="yellow" route="up1" departSpeed="desired" depart="606" />
    <vehicle id="up1_238" type="Car" color="yellow" route="up1" departSpeed="desired" depart="612" />
    <vehicle id="right1_239" type="Car" color="yellow" route="right1" departSpeed="desired" depart="617" />
    <vehicle id="down1_240" type="Car" color="yellow" route="down1" departSpeed="desired" depart="617" />
    <vehicle id="down1_241" type="Car" color="yellow" route="down1" departSpeed="desired" depart="621" />
    <vehicle id="right1_242" type="Car" color="yellow" route="right1" departSpeed="desired" depart="623" />
    <vehicle id="left1_243" type="Car" color="yellow" route="left1" departSpeed="desired" depart="625" />
    <vehicle id="right1_244" type="Car" color="yellow" route="right1" departSpeed="desired" depart="627" />
    <vehicle id="left1_245" type="Car" color="yellow" route="left1" departSpeed="desired" depart="627" />
    <vehicle id="right1_246" type="Car" color="yellow" route="right1" departSpeed="desired" depart="628" />
    <vehicle id="right1_247" type="Car" color="yellow" route="right1" departSpeed="desired" depart="630" />
    <vehicle id="right1_248" type="Car" color="yellow" route="right1" departSpeed="desired" depart="633" />
    <vehicle id="down1_249" type="Car" color="yellow" route="down1" departSpeed="desired" depart="633" />
    <vehicle id="left1_250" type="Car" color="yellow" route="left1" departSpeed="desired" depart="633" />
    <vehicle id="up1_251" type="Car" color="yellow" route="up1" departSpeed="desired" depart="637" />
    <vehicle id="down1_252" type="Car" color="yellow" route="down1" departSpeed="desired" depart="647" />
    <vehicle id="right1_253" type="Car" color="yellow" route="right1" departSpeed="desired" depart="650" />
    <vehicle id="left1_254" type="Car" color="yellow" route="left1" departSpeed="desired" depart="652" />
    <vehicle id="right1_255" type="Car" color="yellow" route="right1" departSpeed="desired" depart="653" />
    <vehicle id="up1_256" type="Car" color="yellow" route="up1" departSpeed="desired" depart="657" />
    <vehicle id="left1_257" type="Car" color="yellow" route="left1" departSpeed="desired" depart="660" />
    <vehicle id="right1_258" type="Car" color="yellow" route="right1" departSpeed="desired" depart="664" />
    <vehicle id="right1_259" type="Car" color="yellow" route="right1" departSpeed="desired" depart="665" />
    <vehicle id="right1_260" type="Car" color="yellow" route="right1" departSpeed="desired" depart="668" />
    <vehicle id="left1_261" type="Car" color="yellow" route="left1" departSpeed="desired" depart="673" />
    <vehicle id="down1_262" type="Car" color="yellow" route="down1" departSpeed="desired" depart="675" />
    <vehicle id="right1_263" type="Car" color="yellow" route="right1" departSpeed="desired" depart="678" />
    <vehicle id="up1_264" type="Car" color="yellow" route="up1" departSpeed="desired" depart="681" />
    <vehicle id="left1_265" type="Car" color="yellow" route="left1" departSpeed="desired" depart="681" />
    <vehicle id="right1_266" type="Car" color="yellow" route="right1" departSpeed="desired" depart="690" />
    <vehicle id="up1_267" type="Car" color="yellow" route="up1" departSpeed="desired" depart="694" />
    <vehicle id="down1_268" type="Car" color="yellow" route="down1" departSpeed="desired" depart="698" />
    <vehicle id="left1_269" type="Car" color="yellow" route="left1" departSpeed="desired" depart="699" />
    <vehicle id="right1_270" type="Car" color="yellow" route="right1" departSpeed="desired" depart="702" />
    <vehicle id="down1_271" type="Car" color="yellow" route="down1" departSpeed="desired" depart="703" />
    <vehicle id="down1_272" type="Car" color="yellow" route="down1" departSpeed="desired" depart="705" />
    <vehicle id="down1_273" type="Car" color="yellow" route="down1" departSpeed="desired" depart="707" />
    <vehicle id="up1_274" type="Car" color="yellow" route="up1" departSpeed="desired" depart="707" />
    <vehicle id="up1_275" type="Car" color="yellow" route="up1" departSpeed="desired" depart="710" />
    <vehicle id="down1_276" type="Car" color="yellow" route="down1" departSpeed="desired" depart="712" />
    <vehicle id="right1_277" type="Car" color="yellow" route="right1" departSpeed="desired" depart="714" />
    <vehicle id="right1_278" type="Car" color="yellow" route="right1" departSpeed="desired" depart="715" />
    <vehicle id="up1_279" type="Car" color="yellow" route="up1" departSpeed="desired" depart="717" />
    <vehicle id="up1_280" type="Car" color="yellow" route="up1" departSpeed="desired" depart="718" />