<routes>
        <vType id="Car" length="5.00" minGap="2.50" maxSpeed="16.67" guiShape="passenger" carFollowModel="IDM" accel="0.8" decel="4.5" tau="1.0"/>

        <route id="right" edges="1to2 2to3 outr" />
        <route id="down" edges="9to2 2to6 outs" />
        <route id="up" edges="12to7 7to3 outn" />
        <route id="left" edges="8to7 7to6 outl" />
        
    <vehicle id="right_0" type="Car" color="yellow" route="right" departSpeed="desired" depart="0" />
    <vehicle id="right_1" type="Car" color="yellow" route="right" departSpeed="desired" depart="1" />
    <vehicle id="up_2" type="Car" color="yellow" route="up" departSpeed="desired" depart="2" />
    <vehicle id="left_3" type="Car" color="yellow" route="left" departSpeed="desired" depart="2" />
    <vehicle id="right_4" type="Car" color="yellow" route="right" departSpeed="desired" depart="4" />
    <vehicle id="up_5" type="Car" color="yellow" route="up" departSpeed="desired" depart="4" />
    <vehicle id="up_6" type="Car" color="yellow" route="up" departSpeed="desired" depart="6" />
    <vehicle id="left_7" type="Car" color="yellow" route="left" departSpeed="desired" depart="6" />
    <vehicle id="right_8" type="Car" color="yellow" route="right" departSpeed="desired" depart="7" />
    <vehicle id="up_9" type="Car" color="yellow" route="up" departSpeed="desired" depart="7" />
    <vehicle id="left_10" type="Car" color="yellow" route="left" departSpeed="desired" depart="7" />
    <vehicle id="up_11" type="Car" color="yellow" route="up" departSpeed="desired" depart="8" />
    <vehicle id="left_12" type="Car" color="yellow" route="left" departSpeed="desired" depart="9" />
    <vehicle id="right_13" type="Car" color="yellow" route="right" departSpeed="desired" depart="13" />
    <vehicle id="right_14_emergency" type="Car" color="red" route="right" departSpeed="desired" depart="15" />
    <vehicle id="up_15" type="Car" color="yellow" route="up" departSpeed="desired" depart="15" />
    <vehicle id="right_16" type="Car" color="yellow" route="right" departSpeed="desired" depart="16" />
    <vehicle id="left_17" type="Car" color="yellow" route="left" departSpeed="desired" depart="18" />
    <vehicle id="down_18_flaw" type="Car" color="blue" route="down" departSpeed="desired" depart="19" />
    <vehicle id="down_19" type="Car" color="yellow" route="down" departSpeed="desired" depart="19" />
    <vehicle id="left_20" type="Car" color="yellow" route="left" departSpeed="desired" depart="20" />
    <vehicle id="right_21" type="Car" color="yellow" route="right" departSpeed="desired" depart="23" />
    <vehicle id="down_22" type="Car" color="yellow" route="down" departSpeed="desired" depart="23" />
    <vehicle id="right_23" type="Car" color="yellow" route="right" departSpeed="desired" depart="24" />
    <vehicle id="down_24" type="Car" color="yellow" route="down" departSpeed="desired" depart="25" />
    <vehicle id="right_25" type="Car" color="yellow" route="right" departSpeed="desired" depart="26" />
    <vehicle id="right_26" type="Car" color="yellow" route="right" departSpeed="desired" depart="27" />
    <vehicle id="left_27" type="Car" color="yellow" route="left" departSpeed="desired" depart="27" />
    <vehicle id="down_28" type="Car" color="yellow" route="down" departSpeed="desired" depart="28" />
    <vehicle id="down_29" type="Car" color="yellow" route="down" departSpeed="desired" depart="29" />
    <vehicle id="down_30" type="Car" color="yellow" route="down" departSpeed="desired" depart="30" />
    <vehicle id="down_31" type="Car" color="yellow" route="down" departSpeed="desired" depart="31" />
    <vehicle id="up_32" type="Car" color="yellow" route="up" departSpeed="desired" depart="31" />
    <vehicle id="up_33" type="Car" color="yellow" route="up" departSpeed="desired" depart="32" />
    <vehicle id="up_34_emergency" type="Car" color="red" route="up" departSpeed="desired" depart="34" />
    <vehicle id="left_35" type="Car" color="yellow" route="left" departSpeed="desired" depart="35" />
    <vehicle id="right_36" type="Car" color="yellow" route="right" departSpeed="desired" depart="38" />
    <vehicle id="up_37" type="Car" color="yellow" route="up" departSpeed="desired" depart="38" />
    <vehicle id="right_38" type="Car" color="yellow" route="right" departSpeed="desired" depart="41" />
    <vehicle id="left_39" type="Car" color="yellow" route="left" departSpeed="desired" depart="43" />
    <vehicle id="left_40" type="Car" color="yellow" route="left" departSpeed="desired" depart="44" />
    <vehicle id="left_41" type="Car" color="yellow" route="left" departSpeed="desired" depart="46" />
    <vehicle id="up_42" type="Car" color="yellow" route="up" departSpeed="desired" depart="47" />
    <vehicle id="right_43" type="Car" color="yellow" route="right" departSpeed="desired" depart="48" />
    <vehicle id="down_44" type="Car" color="yellow" route="down" departSpeed="desired" depart="48" />
    <vehicle id="up_45" type="Car" color="yellow" route="up" departSpeed="desired" depart="49" />
    <vehicle id="left_46" type="Car" color="yellow" route="left" departSpeed="desired" depart="50" />
    <vehicle id="right_47" type="Car" color="yellow" route="right" departSpeed="desired" depart="53" />
    <vehicle id="down_48" type="Car" color="yellow" route="down" departSpeed="desired" depart="55" />
    <vehicle id="down_49" type="Car" color="yellow" route="down" departSpeed="desired" depart="56" />
    <vehicle id="up_50" type="Car" color="yellow" route="up" departSpeed="desired" depart="59" />
    <vehicle id="right_51" type="Car" color="yellow" route="right" departSpeed="desired" depart="60" />
    <vehicle id="left_52_flaw" type="Car" color="blue" route="left" departSpeed="desired" depart="62" />
    <vehicle id="up_53" type="Car" color="yellow" route="up" departSpeed="desired" depart="63" />
    <vehicle id="up_54" type="Car" color="yellow" route="up" departSpeed="desired" depart="64" />
    <vehicle id="right_55" type="Car" color="yellow" route="right" departSpeed="desired" depart="65" />
    <vehicle id="down_56" type="Car" color="yellow" route="down" departSpeed="desired" depart="67" />
    <vehicle id="up_57" type="Car" color="yellow" route="up" departSpeed="desired" depart="67" />
    <vehicle id="left_58" type="Car" color="yellow" route="left" departSpeed="desired" depart="67" />
    <vehicle id="right_59" type="Car" color="yellow" route="right" departSpeed="desired" depart="68" />
    <vehicle id="up_60" type="Car" color="yellow" route="up" departSpeed="desired" depart="68" />
    <vehicle id="right_61" type="Car" color="yellow" route="right" departSpeed="desired" depart="69" />
    <vehicle id="down_62" type="Car" color="yellow" route="down" departSpeed="desired" depart="70" />
    <vehicle id="down_63" type="Car" color="yellow" route="down" departSpeed="desired" depart="71" />
    <vehicle id="up_64" type="Car" color="yellow" route="up" departSpeed="desired" depart="71" />
    <vehicle id="left_65" type="Car" color="yellow" route="left" departSpeed="desired" depart="71" />
    <vehicle id="right_66" type="Car" color="yellow" route="right" departSpeed="desired" depart="72" />
    <vehicle id="right_67" type="Car" color="yellow" route="right" departSpeed="desired" depart="73" />
    <vehicle id="down_68" type="Car" color="yellow" route="down" departSpeed="desired" depart="73" />
    <vehicle id="up_69" type="Car" color="yellow" route="up" departSpeed="desired" depart="73" />
    <vehicle id="down_70" type="Car" color="yellow" route="down" departSpeed="desired" depart="76" />
    <vehicle id="up_71" type="Car" color="yellow" route="up" departSpeed="desired" depart="76" />
    <vehicle id="right_72" type="Car" color="yellow" route="right" departSpeed="desired" depart="77" />
    <vehicle id="left_73" type="Car" color="yellow" route="left" departSpeed="desired" depart="78" />
    <vehicle id="right_74" type="Car" color="yellow" route="right" departSpeed="desired" depart="80" />
    <vehicle id="down_75" type="Car" color="yellow" route="down" departSpeed="desired" depart="83" />
    <vehicle id="up_76" type="Car" color="yellow" route="up" departSpeed="desired" depart="84" />
    <vehicle id="left_77" type="Car" color="yellow" route="left" departSpeed="desired" depart="84" />
    <vehicle id="left_78" type="Car" color="yellow" route="left" departSpeed="desired" depart="85" />
    <vehicle id="right_79" type="Car" color="yellow" route="right" departSpeed="desired" depart="86" />
    <vehicle id="up_80" type="Car" color="yellow" route="up" departSpeed="desired" depart="86" />
    <vehicle id="left_81" type="Car" color="yellow" route="left" departSpeed="desired" depart="86" />
    <vehicle id="down_82" type="Car" color="yellow" route="down" departSpeed="desired" depart="87" />
    <vehicle id="left_83" type="Car" color="yellow" route="left" departSpeed="desired" depart="88" />
    <vehicle id="up_84" type="Car" color="yellow" route="up" departSpeed="desired" depart="91" />
    <vehicle id="left_85" type="Car" color="yellow" route="left" departSpeed="desired" depart="91" />
    <vehicle id="up_86" type="Car" color="yellow" route="up" departSpeed="desired" depart="92" />
    <vehicle id="down_87" type="Car" color="yellow" route="down" departSpeed="desired" depart="93" />
    <vehicle id="down_88" type="Car" color="yellow" route="down" departSpeed="desired" depart="97" />
    <vehicle id="up_89" type="Car" color="yellow" route="up" departSpeed="desired" depart="97" />
    <vehicle id="down_90" type="Car" color="yellow" route="down" departSpeed="desired" depart="98" />
    <vehicle id="down_91" type="Car" color="yellow" route="down" departSpeed="desired" depart="99" />
    <vehicle id="left_92" type="Car" color="yellow" route="left" departSpeed="desired" depart="99" />
    <vehicle id="right_93" type="Car" color="yellow" route="right" departSpeed="desired" depart="101" />
    <vehicle id="up_94" type="Car" color="yellow" route="up" departSpeed="desired" depart="101" />
    <vehicle id="left_95" type="Car" color="yellow" route="left" departSpeed="desired" depart="101" />
    <vehicle id="left_96" type="Car" color="yellow" route="left" departSpeed="desired" depart="102" />
    <vehicle id="left_97" type="Car" color="yellow" route="left" departSpeed="desired" depart="103" />
    <vehicle id="down_98" type="Car" color="yellow" route="down" departSpeed="desired" depart="104" />
    <vehicle id="up_99" type="Car" color="yellow" route="up" departSpeed="desired" depart="105" />
    <vehicle id="down_100" type="Car" color="yellow" route="down" departSpeed="desired" depart="107" />
    <vehicle id="down_101" type="Car" color="yellow" route="down" departSpeed="desired" depart="108" />
    <vehicle id="left_102" type="Car" color="yellow" route="left" departSpeed="desired" depart="111" />
    <vehicle id="down_103" type="Car" color="yellow" route="down" departSpeed="desired" depart="112" />
    <vehicle id="up_104" type="Car" color="yellow" route="up" departSpeed="desired" depart="112" />
    <vehicle id="left_105" type="Car" color="yellow" route="left" departSpeed="desired" depart="112" />
    <vehicle id="down_106" type="Car" color="yellow" route="down" departSpeed="desired" depart="113" />
    <vehicle id="up_107" type="Car" color="yellow" route="up" departSpeed="desired" depart="113" />
    <vehicle id="left_108" type="Car" color="yellow" route="left" departSpeed="desired" depart="114" />
    <vehicle id="up_109" type="Car" color="yellow" route="up" departSpeed="desired" depart="115" />
    <vehicle id="left_110" type="Car" color="yellow" route="left" departSpeed="desired" depart="115" />
    <vehicle id="left_111" type="Car" color="yellow" route="left" departSpeed="desired" depart="116" />
    <vehicle id="right_112" type="Car" color="yellow" route="right" departSpeed="desired" depart="119" />
    <vehicle id="down_113" type="Car" color="yellow" route="down" departSpeed="desired" depart="120" />
    <vehicle id="up_114" type="Car" color="yellow" route="up" departSpeed="desired" depart="120" />
    <vehicle id="left_115" type="Car" color="yellow" route="left" departSpeed="desired" depart="120" />
    <vehicle id="down_116" type="Car" color="yellow" route="down" departSpeed="desired" depart="121" />
    <vehicle id="left_117_flaw" type="Car" color="blue" route="left" departSpeed="desired" depart="124" />
    <vehicle id="up_118" type="Car" color="yellow" route="up" departSpeed="desired" depart="124" />
    <vehicle id="left_119_emergency" type="Car" color="red" route="left" departSpeed="desired" depart="125" />
    <vehicle id="right_120" type="Car" color="yellow" route="right" departSpeed="desired" depart="125" />
    <vehicle id="right_121" type="Car" color="yellow" route="right" departSpeed="desired" depart="126" />
    <vehicle id="right_122" type="Car" color="yellow" route="right" departSpeed="desired" depart="127" />
    <vehicle id="down_123" type="Car" color="yellow" route="down" departSpeed="desired" depart="127" />
    <vehicle id="right_124" type="Car" color="yellow" route="right" departSpeed="desired" depart="128" />
    <vehicle id="right_125" type="Car" color="yellow" route="right" departSpeed="desired" depart="131" />
    <vehicle id="down_126" type="Car" color="yellow" route="down" departSpeed="desired" depart="137" />
    <vehicle id="down_127" type="Car" color="yellow" route="down" departSpeed="desired" depart="138" />
    <vehicle id="up_128" type="Car" color="yellow" route="up" departSpeed="desired" depart="138" />
    <vehicle id="up_129" type="Car" color="yellow" route="up" departSpeed="desired" depart="139" />
    <vehicle id="down_130" type="Car" color="yellow" route="down" departSpeed="desired" depart="140" />
    <vehicle id="up_131" type="Car" color="yellow" route="up" departSpeed="desired" depart="140" />
    <vehicle id="left_132" type="Car" color="yellow" route="left" departSpeed="desired" depart="140" />
    <vehicle id="left_133" type="Car" color="yellow" route="left" departSpeed="desired" depart="141" />
    <vehicle id="up_134" type="Car" color="yellow" route="up" departSpeed="desired" depart="142" />
    <vehicle id="right_135" type="Car" color="yellow" route="right" departSpeed="desired" depart="144" />
    <vehicle id="up_136" type="Car" color="yellow" route="up" departSpeed="desired" depart="146" />
    <vehicle id="up_137" type="Car" color="yellow" route="up" departSpeed="desired" depart="147" />
    <vehicle id="up_138" type="Car" color="yellow" route="up" departSpeed="desired" depart="148" />
    <vehicle id="left_139" type="Car" color="yellow" route="left" departSpeed="desired" depart="148" />
    <vehicle id="right_140" type="Car" color="yellow" route="right" departSpeed="desired" depart="149" />
    <vehicle id="up_141" type="Car" color="yellow" route="up" departSpeed="desired" depart="150" />
    <vehicle id="up_142" type="Car" color="yellow" route="up" departSpeed="desired" depart="151" />
    <vehicle id="down_143" type="Car" color="yellow" route="down" departSpeed="desired" depart="154" />
    <vehicle id="left_144" type="Car" color="yellow" route="left" departSpeed="desired" depart="156" />
    <vehicle id="left_145" type="Car" color="yellow" route="left" departSpeed="desired" depart="157" />
    <vehicle id="down_146" type="Car" color="yellow" route="down" departSpeed="desired" depart="159" />
    <vehicle id="up_147" type="Car" color="yellow" route="up" departSpeed="desired" depart="162" />
    <vehicle id="left_148" type="Car" color="yellow" route="left" departSpeed="desired" depart="164" />
    <vehicle id="up_149" type="Car" color="yellow" route="up" departSpeed="desired" depart="166" />
    <vehicle id="down_150" type="Car" color="yellow" route="down" departSpeed="desired" depart="167" />
    <vehicle id="up_151" type="Car" color="yellow" route="up" departSpeed="desired" depart="167" />
    <vehicle id="down_152" type="Car" color="yellow" route="down" departSpeed="desired" depart="169" />
    <vehicle id="down_153" type="Car" color="yellow" route="down" departSpeed="desired" depart="171" />
    <vehicle id="right_154" type="Car" color="yellow" route="right" departSpeed="desired" depart="172" />
    <vehicle id="up_155" type="Car" color="yellow" route="up" departSpeed="desired" depart="173" />
    <vehicle id="down_156" type="Car" color="yellow" route="down" departSpeed="desired" depart="174" />
    <vehicle id="up_157" type="Car" color="yellow" route="up" departSpeed="desired" depart="175" />
    <vehicle id="left_158" type="Car" color="yellow" route="left" departSpeed="desired" depart="177" />
    <vehicle id="right_159" type="Car" color="yellow" route="right" departSpeed="desired" depart="178" />
    <vehicle id="up_160" type="Car" color="yellow" route="up" departSpeed="desired" depart="180" />
    <vehicle id="left_161" type="Car" color="yellow" route="left" departSpeed="desired" depart="181" />
    <vehicle id="right_162" type="Car" color="yellow" route="right" departSpeed="desired" depart="184" />
    <vehicle id="up_163" type="Car" color="yellow" route="up" departSpeed="desired" depart="188" />
    <vehicle id="down_164" type="Car" color="yellow" route="down" departSpeed="desired" depart="190" />
    <vehicle id="up_165" type="Car" color="yellow" route="up" departSpeed="desired" depart="190" />
    <vehicle id="up_166" type="Car" color="yellow" route="up" departSpeed="desired" depart="193" />
    <vehicle id="up_167" type="Car" color="yellow" route="up" departSpeed="desired" depart="194" />
    <vehicle id="left_168" type="Car" color="yellow" route="left" departSpeed="desired" depart="196" />
    <vehicle id="right_169" type="Car" color="yellow" route="right" departSpeed="desired" depart="200" />
    <vehicle id="up_170" type="Car" color="yellow" route="up" departSpeed="desired" depart="200" />
    <vehicle id="up_171" type="Car" color="yellow" route="up" departSpeed="desired" depart="201" />
    <vehicle id="down_172" type="Car" color="yellow" route="down" departSpeed="desired" depart="207" />
    <vehicle id="left_173" type="Car" color="yellow" route="left" departSpeed="desired" depart="212" />
    <vehicle id="up_174" type="Car" color="yellow" route="up" departSpeed="desired" depart="214" />
    <vehicle id="right_175" type="Car" color="yellow" route="right" departSpeed="desired" depart="216" />
    <vehicle id="up_176" type="Car" color="yellow" route="up" departSpeed="desired" depart="216" />
    <vehicle id="down_177" type="Car" color="yellow" route="down" departSpeed="desired" depart="219" />
    <vehicle id="down_178" type="Car" color="yellow" route="down" departSpeed="desired" depart="220" />
    <vehicle id="down_179" type="Car" color="yellow" route="down" departSpeed="desired" depart="223" />
    <vehicle id="right_180" type="Car" color="yellow" route="right" departSpeed="desired" depart="229" />
    <vehicle id="up_181" type="Car" color="yellow" route="up" departSpeed="desired" depart="229" />
    <vehicle id="down_182" type="Car" color="yellow" route="down" departSpeed="desired" depart="230" />
    <vehicle id="down_183" type="Car" color="yellow" route="down" departSpeed="desired" depart="231" />
    <vehicle id="left_184" type="Car" color="yellow" route="left" departSpeed="desired" depart="231" />
    <vehicle id="down_185_flaw" type="Car" color="blue" route="down" departSpeed="desired" depart="232" />
    <vehicle id="up_186" type="Car" color="yellow" route="up" departSpeed="desired" depart="232" />
    <vehicle id="right_187" type="Car" color="yellow" route="right" departSpeed="desired" depart="236" />
    <vehicle id="right_188" type="Car" color="yellow" route="right" departSpeed="desired" depart="238" />
    <vehicle id="down_189" type="Car" color="yellow" route="down" departSpeed="desired" depart="238" />
    <vehicle id="left_190" type="Car" color="yellow" route="left" departSpeed="desired" depart="238" />
    <vehicle id="right_191" type="Car" color="yellow" route="right" departSpeed="desired" depart="239" />
    <vehicle id="right_192_flaw" type="Car" color="blue" route="right" departSpeed="desired" depart="240" />
    <vehicle id="right_193" type="Car" color="yellow" route="right" departSpeed="desired" depart="240" />
    <vehicle id="down_194" type="Car" color="yellow" route="down" departSpeed="desired" depart="245" />
    <vehicle id="left_195" type="Car" color="yellow" route="left" departSpeed="desired" depart="246" />
    <vehicle id="down_196" type="Car" color="yellow" route="down" departSpeed="desired" depart="248" />
    <vehicle id="up_197" type="Car" color="yellow" route="up" departSpeed="desired" depart="248" />
    <vehicle id="left_198" type="Car" color="yellow" route="left" departSpeed="desired" depart="250" />
    <vehicle id="down_199" type="Car" color="yellow" route="down" departSpeed="desired" depart="251" />
    <vehicle id="right_200" type="Car" color="yellow" route="right" departSpeed="desired" depart="252" />
    <vehicle id="left_201" type="Car" color="yellow" route="left" departSpeed="desired" depart="254" />
    <vehicle id="up_202" type="Car" color="yellow" route="up" departSpeed="desired" depart="256" />
    <vehicle id="right_203" type="Car" color="yellow" route="right" departSpeed="desired" depart="258" />
    <vehicle id="down_204" type="Car" color="yellow" route="down" departSpeed="desired" depart="259" />
    <vehicle id="left_205" type="Car" color="yellow" route="left" departSpeed="desired" depart="259" />
    <vehicle id="right_206" type="Car" color="yellow" route="right" departSpeed="desired" depart="260" />
    <vehicle id="up_207" type="Car" color="yellow" route="up" departSpeed="desired" depart="260" />
    <vehicle id="up_208" type="Car" color="yellow" route="up" departSpeed="desired" depart="261" />
    <vehicle id="left_209" type="Car" color="yellow" route="left" departSpeed="desired" depart="262" />
    <vehicle id="left_210" type="Car" color="yellow" route="left" departSpeed="desired" depart="266" />
    <vehicle id="left_211" type="Car" color="yellow" route="left" departSpeed="desired" depart="268" />
    <vehicle id="left_212" type="Car" color="yellow" route="left" departSpeed="desired" depart="271" />
    <vehicle id="down_213" type="Car" color="yellow" route="down" departSpeed="desired" depart="272" />
    <vehicle id="down_214" type="Car" color="yellow" route="down" departSpeed="desired" depart="273" />
    <vehicle id="left_215" type="Car" color="yellow" route="left" departSpeed="desired" depart="273" />
    <vehicle id="up_216" type="Car" color="yellow" route="up" departSpeed="desired" depart="274" />
    <vehicle id="left_217" type="Car" color="yellow" route="left" departSpeed="desired" depart="274" />
    <vehicle id="left_218" type="Car" color="yellow" route="left" departSpeed="desired" depart="278" />
    <vehicle id="up_219" type="Car" color="yellow" route="up" departSpeed="desired" depart="279" />
    <vehicle id="right_220" type="Car" color="yellow" route="right" departSpeed="desired" depart="280" />
    <vehicle id="down_221" type="Car" color="yellow" route="down" departSpeed="desired" depart="281" />
    <vehicle id="up_222" type="Car" color="yellow" route="up" departSpeed="desired" depart="281" />
    <vehicle id="left_223" type="Car" color="yellow" route="left" departSpeed="desired" depart="281" />
    <vehicle id="up_224" type="Car" color="yellow" route="up" departSpeed="desired" depart="282" />
    <vehicle id="down_225" type="Car" color="yellow" route="down" departSpeed="desired" depart="285" />
    <vehicle id="left_226" type="Car" color="yellow" route="left" departSpeed="desired" depart="285" />
    <vehicle id="right_227" type="Car" color="yellow" route="right" departSpeed="desired" depart="287" />
    <vehicle id="up_228" type="Car" color="yellow" route="up" departSpeed="desired" depart="291" />
    <vehicle id="left_229" type="Car" color="yellow" route="left" departSpeed="desired" depart="291" />
    <vehicle id="left_230" type="Car" color="yellow" route="left" departSpeed="desired" depart="293" />
    <vehicle id="right_231" type="Car" color="yellow" route="right" departSpeed="desired" depart="294" />
    <vehicle id="up_232" type="Car" color="yellow" route="up" departSpeed="desired" depart="294" />
    <vehicle id="up_233" type="Car" color="yellow" route="up" departSpeed="desired" depart="295" />
    <vehicle id="left_234" type="Car" color="yellow" route="left" departSpeed="desired" depart="295" />
    <vehicle id="left_235" type="Car" color="yellow" route="left" departSpeed="desired" depart="297" />
    <vehicle id="down_236" type="Car" color="yellow" route="down" departSpeed="desired" depart="298" />
    <vehicle id="right_237" type="Car" color="yellow" route="right" departSpeed="desired" depart="299" />
    <vehicle id="down_238" type="Car" color="yellow" route="down" departSpeed="desired" depart="301" />
    <vehicle id="left_239" type="Car" color="yellow" route="left" departSpeed="desired" depart="303" />
    <vehicle id="right_240" type="Car" color="yellow" route="right" departSpeed="desired" depart="305" />
    <vehicle id="down_241" type="Car" color="yellow" route="down" departSpeed="desired" depart="307" />
    <vehicle id="right_242" type="Car" color="yellow" route="right" departSpeed="desired" depart="311" />
    <vehicle id="up_243" type="Car" color="yellow" route="up" departSpeed="desired" depart="314" />
    <vehicle id="left_244" type="Car" color="yellow" route="left" departSpeed="desired" depart="314" />
    <vehicle id="down_245" type="Car" color="yellow" route="down" departSpeed="desired" depart="315" />
    <vehicle id="down_246" type="Car" color="yellow" route="down" departSpeed="desired" depart="316" />
    <vehicle id="up_247" type="Car" color="yellow" route="up" departSpeed="desired" depart="316" />
    <vehicle id="down_248" type="Car" color="yellow" route="down" departSpeed="desired" depart="317" />
    <vehicle id="up_249" type="Car" color="yellow" route="up" departSpeed="desired" depart="317" />
    <vehicle id="up_250" type="Car" color="yellow" route="up" departSpeed="desired" depart="318" />
    <vehicle id="right_251" type="Car" color="yellow" route="right" departSpeed="desired" depart="320" />
    <vehicle id="down_252" type="Car" color="yellow" route="down" departSpeed="desired" depart="320" />
    <vehicle id="up_253" type="Car" color="yellow" route="up" departSpeed="desired" depart="320" />
    <vehicle id="down_254" type="Car" color="yellow" route="down" departSpeed="desired" depart="323" />
    <vehicle id="left_255" type="Car" color="yellow" route="left" departSpeed="desired" depart="323" />
    <vehicle id="up_256" type="Car" color="yellow" route="up" departSpeed="desired" depart="326" />
    <vehicle id="down_257" type="Car" color="yellow" route="down" departSpeed="desired" depart="327" />
    <vehicle id="up_258" type="Car" color="yellow" route="up" departSpeed="desired" depart="327" />
    <vehicle id="left_259" type="Car" color="yellow" route="left" departSpeed="desired" depart="328" />
    <vehicle id="left_260" type="Car" color="yellow" route="left" departSpeed="desired" depart="329" />
    <vehicle id="right_261" type="Car" color="yellow" route="right" departSpeed="desired" depart="332" />
    <vehicle id="up_262" type="Car" color="yellow" route="up" departSpeed="desired" depart="332" />
    <vehicle id="down_263" type="Car" color="yellow" route="down" departSpeed="desired" depart="333" />
    <vehicle id="up_264" type="Car" color="yellow" route="up" departSpeed="desired" depart="333" />
    <vehicle id="up_265" type="Car" color="yellow" route="up" departSpeed="desired" depart="337" />
    <vehicle id="right_266" type="Car" color="yellow" route="right" departSpeed="desired" depart="339" />
    <vehicle id="down_267" type="Car" color="yellow" route="down" departSpeed="desired" depart="340" />
    <vehicle id="left_268" type="Car" color="yellow" route="left" departSpeed="desired" depart="340" />
    <vehicle id="down_269" type="Car" color="yellow" route="down" departSpeed="desired" depart="342" />
    <vehicle id="right_270" type="Car" color="yellow" route="right" departSpeed="desired" depart="343" />
    <vehicle id="down_271" type="Car" color="yellow" route="down" departSpeed="desired" depart="344" />
    <vehicle id="right_272" type="Car" color="yellow" route="right" departSpeed="desired" depart="346" />
    <vehicle id="up_273" type="Car" color="yellow" route="up" departSpeed="desired" depart="348" />
    <vehicle id="right_274" type="Car" color="yellow" route="right" departSpeed="desired" depart="349" />
    <vehicle id="down_275" type="Car" color="yellow" route="down" departSpeed="desired" depart="349" />
    <vehicle id="left_276" type="Car" color="yellow" route="left" departSpeed="desired" depart="349" />
    <vehicle id="right_277" type="Car" color="yellow" route="right" departSpeed="desired" depart="354" />
    <vehicle id="up_278" type="Car" color="yellow" route="up" departSpeed="desired" depart="354" />
    <vehicle id="right_279" type="Car" color="yellow" route="right" departSpeed="desired" depart="355" />
    <vehicle id="right_280" type="Car" color="yellow" route="right" departSpeed="desired" depart="356" />
    <vehicle id="down_281" type="Car" color="yellow" route="down" departSpeed="desired" depart="356" />
    <vehicle id="left_282" type="Car" color="yellow" route="left" departSpeed="desired" depart="356" />
    <vehicle id="down_283" type="Car" color="yellow" route="down" departSpeed="desired" depart="357" />
    <vehicle id="left_284_flaw" type="Car" color="blue" route="left" departSpeed="desired" depart="358" />
    <vehicle id="right_285" type="Car" color="yellow" route="right" departSpeed="desired" depart="359" />
    <vehicle id="down_286" type="Car" color="yellow" route="down" departSpeed="desired" depart="359" />
    <vehicle id="down_287" type="Car" color="yellow" route="down" departSpeed="desired" depart="360" />