<routes>
        <vType id="Car" length="5.00" minGap="2.50" maxSpeed="16.67" guiShape="passenger" carFollowModel="IDM" accel="0.8" decel="4.5" tau="1.0"/>

        <route id="right" edges="1to2 2to3 outr" />
        <route id="down" edges="9to2 2to6 outs" />
        <route id="up" edges="12to7 7to3 outn" />
        <route id="left" edges="8to7 7to6 outl" />
        
    <vehicle id="left_0_flaw" type="Car" color="blue" route="left" departSpeed="desired" depart="0" />
    <vehicle id="down_1_flaw" type="Car" color="blue" route="down" departSpeed="desired" depart="1" />
    <vehicle id="right_2_flaw" type="Car" color="blue" route="right" departSpeed="desired" depart="2" />
    <vehicle id="left_3_flaw" type="Car" color="blue" route="left" departSpeed="desired" depart="3" />
    <vehicle id="right_4_flaw" type="Car" color="blue" route="right" departSpeed="desired" depart="4" />
    <vehicle id="up_5_flaw" type="Car" color="blue" route="up" departSpeed="desired" depart="5" />
    <vehicle id="up_6_flaw" type="Car" color="blue" route="up" departSpeed="desired" depart="6" />
    <vehicle id="up_7_flaw" type="Car" color="blue" route="up" departSpeed="desired" depart="7" />
    <vehicle id="up_8_flaw" type="Car" color="blue" route="up" departSpeed="desired" depart="8" />
    <vehicle id="up_9_flaw" type="Car" color="blue" route="up" departSpeed="desired" depart="9" />
    <vehicle id="left_10_flaw" type="Car" color="blue" route="left" departSpeed="desired" depart="10" />
    <vehicle id="right_11_flaw" type="Car" color="blue" route="right" departSpeed="desired" depart="11" />
    <vehicle id="down_12_flaw" type="Car" color="blue" route="down" departSpeed="desired" depart="12" />
    <vehicle id="right_13_flaw" type="Car" color="blue" route="right" departSpeed="desired" depart="13" />
    <vehicle id="up_14_flaw" type="Car" color="blue" route="up" departSpeed="desired" depart="14" />
    <vehicle id="down_15_flaw" type="Car" color="blue" route="down" departSpeed="desired" depart="15" />
    <vehicle id="up_16_flaw" type="Car" color="blue" route="up" departSpeed="desired" depart="16" />
    <vehicle id="left_17_flaw" type="Car" color="blue" route="left" departSpeed="desired" depart="17" />
    <vehicle id="left_18_flaw" type="Car" color="blue" route="left" departSpeed="desired" depart="18" />
    <vehicle id="left_19_flaw" type="Car" color="blue" route="left" departSpeed="desired" depart="19" />
    <vehicle id="down_20_flaw" type="Car" color="blue" route="down" departSpeed="desired" depart="20" />
    <vehicle id="left_21_flaw" type="Car" color="blue" route="left" departSpeed="desired" depart="21" />
    <vehicle id="left_22_flaw" type="Car" color="blue" route="left" departSpeed="desired" depart="22" />
    <vehicle id="down_23_flaw" type="Car" color="blue" route="down" departSpeed="desired" depart="23" />
    <vehicle id="right_24_flaw" type="Car" color="blue" route="right" departSpeed="desired" depart="24" />
    <vehicle id="right_25_flaw" type="Car" color="blue" route="right" departSpeed="desired" depart="25" />
    <vehicle id="up_26_flaw" type="Car" color="blue" route="up" departSpeed="desired" depart="26" />
    <vehicle id="right_27_flaw" type="Car" color="blue" route="right" departSpeed="desired" depart="27" />
    <vehicle id="right_28_flaw" type="Car" color="blue" route="right" departSpeed="desired" depart="28" />
    <vehicle id="up_29_flaw" type="Car" color="blue" route="up" departSpeed="desired" depart="29" />
    <vehicle id="right_30_flaw" type="Car" color="blue" route="right" departSpeed="desired" depart="30" />
    <vehicle id="down_31_flaw" type="Car" color="blue" route="down" departSpeed="desired" depart="31" />
    <vehicle id="right_32_flaw" type="Car" color="blue" route="right" departSpeed="desired" depart="32" />
    <vehicle id="right_33_flaw" type="Car" color="blue" route="right" departSpeed="desired" depart="33" />
    <vehicle id="up_34_flaw" type="Car" color="blue" route="up" departSpeed="desired" depart="34" />
    <vehicle id="down_35_flaw" type="Car" color="blue" route="down" departSpeed="desired" depart="35" />
    <vehicle id="right_36_flaw" type="Car" color="blue" route="right" departSpeed="desired" depart="36" />
    <vehicle id="left_37_flaw" type="Car" color="blue" route="left" departSpeed="desired" depart="37" />
    <vehicle id="down_38_flaw" type="Car" color="blue" route="down" departSpeed="desired" depart="38" />
    <vehicle id="up_39_flaw" type="Car" color="blue" route="up" departSpeed="desired" depart="39" />
    <vehicle id="down_40_flaw" type="Car" color="blue" route="down" departSpeed="desired" depart="40" />
    <vehicle id="left_41_flaw" type="Car" color="blue" route="left" departSpeed="desired" depart="41" />
    <vehicle id="up_42_flaw" type="Car" color="blue" route="up" departSpeed="desired" depart="42" />
    <vehicle id="right_43_flaw" type="Car" color="blue" route="right" departSpeed="desired" depart="43" />
    <vehicle id="down_44_flaw" type="Car" color="blue" route="down" departSpeed="desired" depart="44" />
    <vehicle id="down_45_flaw" type="Car" color="blue" route="down" departSpeed="desired" depart="45" />
    <vehicle id="right_46_flaw" type="Car" color="blue" route="right" departSpeed="desired" depart="46" />
    <vehicle id="down_47_flaw" type="Car" color="blue" route="down" departSpeed="desired" depart="47" />
    <vehicle id="down_48_flaw" type="Car" color="blue" route="down" departSpeed="desired" depart="48" />
    <vehicle id="right_49_flaw" type="Car" color="blue" route="right" departSpeed="desired" depart="49" />
    <vehicle id="up_50_flaw" type="Car" color="blue" route="up" departSpeed="desired" depart="50" />
    <vehicle id="down_51_flaw" type="Car" color="blue" route="down" departSpeed="desired" depart="51" />
    <vehicle id="up_52_flaw" type="Car" color="blue" route="up" departSpeed="desired" depart="52" />
    <vehicle id="right_53_flaw" type="Car" color="blue" route="right" departSpeed="desired" depart="53" />
    <vehicle id="left_54_flaw" type="Car" color="blue" route="left" departSpeed="desired" depart="54" />
    <vehicle id="up_55_flaw" type="Car" color="blue" route="up" departSpeed="desired" depart="55" />
    <vehicle id="up_56_flaw" type="Car" color="blue" route="up" departSpeed="desired" depart="56" />
    <vehicle id="left_57_flaw" type="Car" color="blue" route="left" departSpeed="desired" depart="57" />
    <vehicle id="up_58_flaw" type="Car" color="blue" route="up" departSpeed="desired" depart="58" />
    <vehicle id="down_59_flaw" type="Car" color="blue" route="down" departSpeed="desired" depart="59" />
    <vehicle id="up_60_flaw" type="Car" color="blue" route="up" departSpeed="desired" depart="60" />
    <vehicle id="down_61_flaw" type="Car" color="blue" route="down" departSpeed="desired" depart="61" />
    <vehicle id="down_62_flaw" type="Car" color="blue" route="down" departSpeed="desired" depart="62" />
    <vehicle id="left_63_flaw" type="Car" color="blue" route="left" departSpeed="desired" depart="63" />
    <vehicle id="down_64_flaw" type="Car" color="blue" route="down" departSpeed="desired" depart="64" />
    <vehicle id="left_65_flaw" type="Car" color="blue" route="left" departSpeed="desired" depart="65" />
    <vehicle id="down_66_flaw" type="Car" color="blue" route="down" departSpeed="desired" depart="66" />
    <vehicle id="left_67_flaw" type="Car" color="blue" route="left" departSpeed="desired" depart="67" />
    <vehicle id="up_68_flaw" type="Car" color="blue" route="up" departSpeed="desired" depart="68" />
    <vehicle id="down_69_flaw" type="Car" color="blue" route="down" departSpeed="desired" depart="69" />
    <vehicle id="right_70_flaw" type="Car" color="blue" route="right" departSpeed="desired" depart="70" />
    <vehicle id="up_71_flaw" type="Car" color="blue" route="up" departSpeed="desired" depart="71" />
    <vehicle id="up_72_flaw" type="Car" color="blue" route="up" departSpeed="desired" depart="72" />
    <vehicle id="up_73_flaw" type="Car" color="blue" route="up" departSpeed="desired" depart="73" />
    <vehicle id="down_74_flaw" type="Car" color="blue" route="down" departSpeed="desired" depart="74" />
    <vehicle id="left_75_flaw" type="Car" color="blue" route="left" departSpeed="desired" depart="75" />
    <vehicle id="down_76_flaw" type="Car" color="blue" route="down" departSpeed="desired" depart="76" />
    <vehicle id="left_77_flaw" type="Car" color="blue" route="left" departSpeed="desired" depart="77" />
    <vehicle id="down_78_flaw" type="Car" color="blue" route="down" departSpeed="desired" depart="78" />
    <vehicle id="up_79_flaw" type="Car" color="blue" route="up" departSpeed="desired" depart="79" />
    <vehicle id="up_80_flaw" type="Car" color="blue" route="up" departSpeed="desired" depart="80" />
    <vehicle id="left_81_flaw" type="Car" color="blue" route="left" departSpeed="desired" depart="81" />
    <vehicle id="down_82_flaw" type="Car" color="blue" route="down" departSpeed="desired" depart="82" />
    <vehicle id="left_83_flaw" type="Car" color="blue" route="left" departSpeed="desired" depart="83" />
    <vehicle id="up_84_flaw" type="Car" color="blue" route="up" departSpeed="desired" depart="84" />
    <vehicle id="down_85_flaw" type="Car" color="blue" route="down" departSpeed="desired" depart="85" />
    <vehicle id="left_86_flaw" type="Car" color="blue" route="left" departSpeed="desired" depart="86" />
    <vehicle id="down_87_flaw" type="Car" color="blue" route="down" departSpeed="desired" depart="87" />
    <vehicle id="left_88_flaw" type="Car" color="blue" route="left" departSpeed="desired" depart="88" />
    <vehicle id="right_89_flaw" type="Car" color="blue" route="right" departSpeed="desired" depart="89" />
    <vehicle id="down_90_flaw" type="Car" color="blue" route="down" departSpeed="desired" depart="90" />
    <vehicle id="down_91_flaw" type="Car" color="blue" route="down" departSpeed="desired" depart="91" />
    <vehicle id="up_92_flaw" type="Car" color="blue" route="up" departSpeed="desired" depart="92" />
    <vehicle id="down_93_flaw" type="Car" color="blue" route="down" departSpeed="desired" depart="93" />
    <vehicle id="up_94_flaw" type="Car" color="blue" route="up" departSpeed="desired" depart="94" />
    <vehicle id="right_95_flaw" type="Car" color="blue" route="right" departSpeed="desired" depart="95" />
    <vehicle id="left_96_flaw" type="Car" color="blue" route="left" departSpeed="desired" depart="96" />
    <vehicle id="down_97_flaw" type="Car" color="blue" route="down" departSpeed="desired" depart="97" />
    <vehicle id="left_98_flaw" type="Car" color="blue" route="left" departSpeed="desired" depart="98" />
    <vehicle id="right_99_flaw" type="Car" color="blue" route="right" departSpeed="desired" depart="99" />
    <vehicle id="up_100_flaw" type="Car" color="blue" route="up" departSpeed="desired" depart="100" />
    <vehicle id="right_101_flaw" type="Car" color="blue" route="right" departSpeed="desired" depart="101" />
    <vehicle id="up_102_flaw" type="Car" color="blue" route="up" departSpeed="desired" depart="102" />
    <vehicle id="down_103_flaw" type="Car" color="blue" route="down" departSpeed="desired" depart="103" />
    <vehicle id="up_104_flaw" type="Car" color="blue" route="up" departSpeed="desired" depart="104" />
    <vehicle id="left_105_flaw" type="Car" color="blue" route="left" departSpeed="desired" depart="105" />
    <vehicle id="right_106_flaw" type="Car" color="blue" route="right" departSpeed="desired" depart="106" />
    <vehicle id="up_107_flaw" type="Car" color="blue" route="up" departSpeed="desired" depart="107" />
    <vehicle id="up_108_flaw" type="Car" color="blue" route="up" departSpeed="desired" depart="108" />
    <vehicle id="left_109_flaw" type="Car" color="blue" route="left" departSpeed="desired" depart="109" />
    <vehicle id="left_110_flaw" type="Car" color="blue" route="left" departSpeed="desired" depart="110" />
    <vehicle id="left_111_flaw" type="Car" color="blue" route="left" departSpeed="desired" depart="111" />
    <vehicle id="left_112_flaw" type="Car" color="blue" route="left" departSpeed="desired" depart="112" />
    <vehicle id="up_113_flaw" type="Car" color="blue" route="up" departSpeed="desired" depart="113" />
    <vehicle id="up_114_flaw" type="Car" color="blue" route="up" departSpeed="desired" depart="114" />
    <vehicle id="left_115_flaw" type="Car" color="blue" route="left" departSpeed="desired" depart="115" />
    <vehicle id="right_116_flaw" type="Car" color="blue" route="right" departSpeed="desired" depart="116" />
    <vehicle id="down_117_flaw" type="Car" color="blue" route="down" departSpeed="desired" depart="117" />
    <vehicle id="up_118_flaw" type="Car" color="blue" route="up" departSpeed="desired" depart="118" />
    <vehicle id="right_119_flaw" type="Car" color="blue" route="right" departSpeed="desired" depart="119" />
    <vehicle id="up_120_flaw" type="Car" color="blue" route="up" departSpeed="desired" depart="120" />
    <vehicle id="down_121_flaw" type="Car" color="blue" route="down" departSpeed="desired" depart="121" />
    <vehicle id="up_122_flaw" type="Car" color="blue" route="up" departSpeed="desired" depart="122" />
    <vehicle id="left_123_flaw" type="Car" color="blue" route="left" departSpeed="desired" depart="123" />
    <vehicle id="left_124_flaw" type="Car" color="blue" route="left" departSpeed="desired" depart="124" />
    <vehicle id="right_125_flaw" type="Car" color="blue" route="right" departSpeed="desired" depart="125" />
    <vehicle id="left_126_flaw" type="Car" color="blue" route="left" departSpeed="desired" depart="126" />
    <vehicle id="left_127_flaw" type="Car" color="blue" route="left" departSpeed="desired" depart="127" />
    <vehicle id="up_128_flaw" type="Car" color="blue" route="up" departSpeed="desired" depart="128" />
    <vehicle id="left_129_flaw" type="Car" color="blue" route="left" departSpeed="desired" depart="129" />
    <vehicle id="right_130_flaw" type="Car" color="blue" route="right" departSpeed="desired" depart="130" />
    <vehicle id="up_131_flaw" type="Car" color="blue" route="up" departSpeed="desired" depart="131" />
    <vehicle id="right_132_flaw" type="Car" color="blue" route="right" departSpeed="desired" depart="132" />
    <vehicle id="up_133_flaw" type="Car" color="blue" route="up" departSpeed="desired" depart="133" />
    <vehicle id="left_134_flaw" type="Car" color="blue" route="left" departSpeed="desired" depart="134" />
    <vehicle id="left_135_flaw" type="Car" color="blue" route="left" departSpeed="desired" depart="135" />
    <vehicle id="left_136_flaw" type="Car" color="blue" route="left" departSpeed="desired" depart="136" />
    <vehicle id="up_137_flaw" type="Car" color="blue" route="up" departSpeed="desired" depart="137" />
    <vehicle id="left_138_flaw" type="Car" color="blue" route="left" departSpeed="desired" depart="138" />
    <vehicle id="down_139_flaw" type="Car" color="blue" route="down" departSpeed="desired" depart="139" />
    <vehicle id="right_140_flaw" type="Car" color="blue" route="right" departSpeed="desired" depart="140" />
    <vehicle id="left_141_flaw" type="Car" color="blue" route="left" departSpeed="desired" depart="141" />
    <vehicle id="down_142_flaw" type="Car" color="blue" route="down" departSpeed="desired" depart="142" />
    <vehicle id="right_143_flaw" type="Car" color="blue" route="right" departSpeed="desired" depart="143" />
    <vehicle id="right_144_flaw" type="Car" color="blue" route="right" departSpeed="desired" depart="144" />
    <vehicle id="down_145_flaw" type="Car" color="blue" route="down" departSpeed="desired" depart="145" />
    <vehicle id="right_146_flaw" type="Car" color="blue" route="right" departSpeed="desired" depart="146" />
    <vehicle id="right_147_flaw" type="Car" color="blue" route="right" departSpeed="desired" depart="147" />
    <vehicle id="left_148_flaw" type="Car" color="blue" route="left" departSpeed="desired" depart="148" />
    <vehicle id="up_149_flaw" type="Car" color="blue" route="up" departSpeed="desired" depart="149" />
    <vehicle id="right_150_flaw" type="Car" color="blue" route="right" departSpeed="desired" depart="150" />
    <vehicle id="left_151_flaw" type="Car" color="blue" route="left" departSpeed="desired" depart="151" />
    <vehicle id="left_152_flaw" type="Car" color="blue" route="left" departSpeed="desired" depart="152" />
    <vehicle id="up_153_flaw" type="Car" color="blue" route="up" departSpeed="desired" depart="153" />
    <vehicle id="down_154_flaw" type="Car" color="blue" route="down" departSpeed="desired" depart="154" />
    <vehicle id="up_155_flaw" type="Car" color="blue" route="up" departSpeed="desired" depart="155" />
    <vehicle id="left_156_flaw" type="Car" color="blue" route="left" departSpeed="desired" depart="156" />
    <vehicle id="down_157_flaw" type="Car" color="blue" route="down" departSpeed="desired" depart="157" />
    <vehicle id="left_158_flaw" type="Car" color="blue" route="left" departSpeed="desired" depart="158" />
    <vehicle id="up_159_flaw" type="Car" color="blue" route="up" departSpeed="desired" depart="159" />
    <vehicle id="down_160_flaw" type="Car" color="blue" route="down" departSpeed="desired" depart="160" />
    <vehicle id="right_161_flaw" type="Car" color="blue" route="right" departSpeed="desired" depart="161" />
    <vehicle id="down_162_flaw" type="Car" color="blue" route="down" departSpeed="desired" depart="162" />
    <vehicle id="left_163_flaw" type="Car" color="blue" route="left" departSpeed="desired" depart="163" />
    <vehicle id="down_164_flaw" type="Car" color="blue" route="down" departSpeed="desired" depart="164" />
    <vehicle id="down_165_flaw" type="Car" color="blue" route="down" departSpeed="desired" depart="165" />
    <vehicle id="up_166_flaw" type="Car" color="blue" route="up" departSpeed="desired" depart="166" />
    <vehicle id="down_167_flaw" type="Car" color="blue" route="down" departSpeed="desired" depart="167" />
    <vehicle id="up_168_flaw" type="Car" color="blue" route="up" departSpeed="desired" depart="168" />
    <vehicle id="left_169_flaw" type="Car" color="blue" route="left" departSpeed="desired" depart="169" />
    <vehicle id="down_170_flaw" type="Car" color="blue" route="down" departSpeed="desired" depart="170" />
    <vehicle id="left_171_flaw" type="Car" color="blue" route="left" departSpeed="desired" depart="171" />
    <vehicle id="left_172_flaw" type="Car" color="blue" route="left" departSpeed="desired" depart="172" />
    <vehicle id="down_173_flaw" type="Car" color="blue" route="down" departSpeed="desired" depart="173" />
    <vehicle id="up_174_flaw" type="Car" color="blue" route="up" departSpeed="desired" depart="174" />
    <vehicle id="right_175_flaw" type="Car" color="blue" route="right" departSpeed="desired" depart="175" />
    <vehicle id="down_176_flaw" type="Car" color="blue" route="down" departSpeed="desired" depart="176" />
    <vehicle id="left_177_flaw" type="Car" color="blue" route="left" departSpeed="desired" depart="177" />
    <vehicle id="left_178_flaw" type="Car" color="blue" route="left" departSpeed="desired" depart="178" />
    <vehicle id="down_179_flaw" type="Car" color="blue" route="down" departSpeed="desired" depart="179" />
    <vehicle id="up_180_flaw" type="Car" color="blue" route="up" departSpeed="desired" depart="180" />
    <vehicle id="up_181_flaw" type="Car" color="blue" route="up" departSpeed="desired" depart="181" />
    <vehicle id="up_182_flaw" type="Car" color="blue" route="up" departSpeed="desired" depart="182" />
    <vehicle id="up_183_flaw" type="Car" color="blue" route="up" departSpeed="desired" depart="183" />
    <vehicle id="down_184_flaw" type="Car" color="blue" route="down" departSpeed="desired" depart="184" />
    <vehicle id="up_185_flaw" type="Car" color="blue" route="up" departSpeed="desired" depart="185" />
    <vehicle id="left_186_flaw" type="Car" color="blue" route="left" departSpeed="desired" depart="186" />
    <vehicle id="right_187_flaw" type="Car" color="blue" route="right" departSpeed="desired" depart="187" />
    <vehicle id="left_188_flaw" type="Car" color="blue" route="left" departSpeed="desired" depart="188" />
    <vehicle id="left_189_flaw" type="Car" color="blue" route="left" departSpeed="desired" depart="189" />
    <vehicle id="right_190_flaw" type="Car" color="blue" route="right" departSpeed="desired" depart="190" />
    <vehicle id="right_191_flaw" type="Car" color="blue" route="right" departSpeed="desired" depart="191" />
    <vehicle id="left_192_flaw" type="Car" color="blue" route="left" departSpeed="desired" depart="192" />
    <vehicle id="right_193_flaw" type="Car" color="blue" route="right" departSpeed="desired" depart="193" />
    <vehicle id="left_194_flaw" type="Car" color="blue" route="left" departSpeed="desired" depart="194" />
    <vehicle id="down_195_flaw" type="Car" color="blue" route="down" departSpeed="desired" depart="195" />
    <vehicle id="up_196_flaw" type="Car" color="blue" route="up" departSpeed="desired" depart="196" />
    <vehicle id="left_197_flaw" type="Car" color="blue" route="left" departSpeed="desired" depart="197" />
    <vehicle id="down_198_flaw" type="Car" color="blue" route="down" departSpeed="desired" depart="198" />
    <vehicle id="left_199_flaw" type="Car" color="blue" route="left" departSpeed="desired" depart="199" />
    <vehicle id="up_200_flaw" type="Car" color="blue" route="up" departSpeed="desired" depart="200" />
    <vehicle id="up_201_flaw" type="Car" color="blue" route="up" departSpeed="desired" depart="201" />
    <vehicle id="down_202_flaw" type="Car" color="blue" route="down" departSpeed="desired" depart="202" />
    <vehicle id="down_203_flaw" type="Car" color="blue" route="down" departSpeed="desired" depart="203" />
    <vehicle id="down_204_flaw" type="Car" color="blue" route="down" departSpeed="desired" depart="204" />
    <vehicle id="up_205_flaw" type="Car" color="blue" route="up" departSpeed="desired" depart="205" />
    <vehicle id="down_206_flaw" type="Car" color="blue" route="down" departSpeed="desired" depart="206" />
    <vehicle id="left_207_flaw" type="Car" color="blue" route="left" departSpeed="desired" depart="207" />
    <vehicle id="down_208_flaw" type="Car" color="blue" route="down" departSpeed="desired" depart="208" />
    <vehicle id="left_209_flaw" type="Car" color="blue" route="left" departSpeed="desired" depart="209" />
    <vehicle id="up_210_flaw" type="Car" color="blue" route="up" departSpeed="desired" depart="210" />
    <vehicle id="left_211_flaw" type="Car" color="blue" route="left" departSpeed="desired" depart="211" />
    <vehicle id="left_212_flaw" type="Car" color="blue" route="left" departSpeed="desired" depart="212" />
    <vehicle id="right_213_flaw" type="Car" color="blue" route="right" departSpeed="desired" depart="213" />
    <vehicle id="right_214_flaw" type="Car" color="blue" route="right" departSpeed="desired" depart="214" />
    <vehicle id="right_215_flaw" type="Car" color="blue" route="right" departSpeed="desired" depart="215" />
    <vehicle id="right_216_flaw" type="Car" color="blue" route="right" departSpeed="desired" depart="216" />
    <vehicle id="up_217_flaw" type="Car" color="blue" route="up" departSpeed="desired" depart="217" />
    <vehicle id="up_218_flaw" type="Car" color="blue" route="up" departSpeed="desired" depart="218" />
    <vehicle id="left_219_flaw" type="Car" color="blue" route="left" departSpeed="desired" depart="219" />
    <vehicle id="left_220_flaw" type="Car" color="blue" route="left" departSpeed="desired" depart="220" />
    <vehicle id="right_221_flaw" type="Car" color="blue" route="right" departSpeed="desired" depart="221" />
    <vehicle id="up_222_flaw" type="Car" color="blue" route="up" departSpeed="desired" depart="222" />
    <vehicle id="up_223_flaw" type="Car" color="blue" route="up" departSpeed="desired" depart="223" />
    <vehicle id="left_224_flaw" type="Car" color="blue" route="left" departSpeed="desired" depart="224" />
    <vehicle id="down_225_flaw" type="Car" color="blue" route="down" departSpeed="desired" depart="225" />
    <vehicle id="down_226_flaw" type="Car" color="blue" route="down" departSpeed="desired" depart="226" />
    <vehicle id="left_227_flaw" type="Car" color="blue" route="left" departSpeed="desired" depart="227" />
    <vehicle id="down_228_flaw" type="Car" color="blue" route="down" departSpeed="desired" depart="228" />
    <vehicle id="left_229_flaw" type="Car" color="blue" route="left" departSpeed="desired" depart="229" />
    <vehicle id="up_230_flaw" type="Car" color="blue" route="up" departSpeed="desired" depart="230" />
    <vehicle id="right_231_flaw" type="Car" color="blue" route="right" departSpeed="desired" depart="231" />
    <vehicle id="left_232_flaw" type="Car" color="blue" route="left" departSpeed="desired" depart="232" />
    <vehicle id="right_233_flaw" type="Car" color="blue" route="right" departSpeed="desired" depart="233" />
    <vehicle id="right_234_flaw" type="Car" color="blue" route="right" departSpeed="desired" depart="234" />
    <vehicle id="up_235_flaw" type="Car" color="blue" route="up" departSpeed="desired" depart="235" />
    <vehicle id="up_236_flaw" type="Car" color="blue" route="up" departSpeed="desired" depart="236" />
    <vehicle id="down_237_flaw" type="Car" color="blue" route="down" departSpeed="desired" depart="237" />
    <vehicle id="up_238_flaw" type="Car" color="blue" route="up" departSpeed="desired" depart="238" />
    <vehicle id="up_239_flaw" type="Car" color="blue" route="up" departSpeed="desired" depart="239" />
    <vehicle id="left_240_flaw" type="Car" color="blue" route="left" departSpeed="desired" depart="240" />
    <vehicle id="down_241_flaw" type="Car" color="blue" route="down" departSpeed="desired" depart="241" />
    <vehicle id="right_242_flaw" type="Car" color="blue" route="right" departSpeed="desired" depart="242" />
    <vehicle id="left_243_flaw" type="Car" color="blue" route="left" departSpeed="desired" depart="243" />
    <vehicle id="left_244_flaw" type="Car" color="blue" route="left" departSpeed="desired" depart="244" />
    <vehicle id="down_245_flaw" type="Car" color="blue" route="down" departSpeed="desired" depart="245" />
    <vehicle id="up_246_flaw" type="Car" color="blue" route="up" departSpeed="desired" depart="246" />
    <vehicle id="up_247_flaw" type="Car" color="blue" route="up" departSpeed="desired" depart="247" />
    <vehicle id="right_248_flaw" type="Car" color="blue" route="right" departSpeed="desired" depart="248" />
    <vehicle id="up_249_flaw" type="Car" color="blue" route="up" departSpeed="desired" depart="249" />
    <vehicle id="down_250_flaw" type="Car" color="blue" route="down" departSpeed="desired" depart="250" />
    <vehicle id="up_251_flaw" type="Car" color="blue" route="up" departSpeed="desired" depart="251" />
    <vehicle id="left_252_flaw" type="Car" color="blue" route="left" departSpeed="desired" depart="252" />
    <vehicle id="right_253_flaw" type="Car" color="blue" route="right" departSpeed="desired" depart="253" />
    <vehicle id="right_254_flaw" type="Car" color="blue" route="right" departSpeed="desired" depart="254" />
    <vehicle id="down_255_flaw" type="Car" color="blue" route="down" departSpeed="desired" depart="255" />
    <vehicle id="down_256_flaw" type="Car" color="blue" route="down" departSpeed="desired" depart="256" />
    <vehicle id="down_257_flaw" type="Car" color="blue" route="down" departSpeed="desired" depart="257" />
    <vehicle id="left_258_flaw" type="Car" color="blue" route="left" departSpeed="desired" depart="258" />
    <vehicle id="down_259_flaw" type="Car" color="blue" route="down" departSpeed="desired" depart="259" />
    <vehicle id="right_260_flaw" type="Car" color="blue" route="right" departSpeed="desired" depart="260" />
    <vehicle id="right_261_flaw" type="Car" color="blue" route="right" departSpeed="desired" depart="261" />
    <vehicle id="down_262_flaw" type="Car" color="blue" route="down" departSpeed="desired" depart="262" />
    <vehicle id="right_263_flaw" type="Car" color="blue" route="right" departSpeed="desired" depart="263" />
    <vehicle id="down_264_flaw" type="Car" color="blue" route="down" departSpeed="desired" depart="264" />
    <vehicle id="right_265_flaw" type="Car" color="blue" route="right" departSpeed="desired" depart="265" />
    <vehicle id="up_266_flaw" type="Car" color="blue" route="up" departSpeed="desired" depart="266" />
    <vehicle id="up_267_flaw" type="Car" color="blue" route="up" departSpeed="desired" depart="267" />
    <vehicle id="right_268_flaw" type="Car" color="blue" route="right" departSpeed="desired" depart="268" />
    <vehicle id="up_269_flaw" type="Car" color="blue" route="up" departSpeed="desired" depart="269" />
    <vehicle id="up_270_flaw" type="Car" color="blue" route="up" departSpeed="desired" depart="270" />
    <vehicle id="left_271_flaw" type="Car" color="blue" route="left" departSpeed="desired" depart="271" />
    <vehicle id="left_272_flaw" type="Car" color="blue" route="left" departSpeed="desired" depart="272" />
    <vehicle id="left_273_flaw" type="Car" color="blue" route="left" departSpeed="desired" depart="273" />
    <vehicle id="right_274_flaw" type="Car" color="blue" route="right" departSpeed="desired" depart="274" />
    <vehicle id="up_275_flaw" type="Car" color="blue" route="up" departSpeed="desired" depart="275" />
    <vehicle id="down_276_flaw" type="Car" color="blue" route="down" departSpeed="desired" depart="276" />
    <vehicle id="up_277_flaw" type="Car" color="blue" route="up" departSpeed="desired" depart="277" />
    <vehicle id="up_278_flaw" type="Car" color="blue" route="up" departSpeed="desired" depart="278" />
    <vehicle id="up_279_flaw" type="Car" color="blue" route="up" departSpeed="desired" depart="279" />