<routes>
        <vType id="Car" length="5.00" minGap="2.50" maxSpeed="16.67" guiShape="passenger" carFollowModel="IDM" accel="0.8" decel="4.5" tau="1.0"/>

        <route id="right" edges="1to2 2to3 outr" />
        <route id="down" edges="9to2 2to6 outs" />
        <route id="up" edges="12to7 7to3 outn" />
        <route id="left" edges="8to7 7to6 outl" />
        
    <vehicle id="down_0" type="Car" route="down" departSpeed="desired" depart="0" />
    <vehicle id="left_1" type="Car" route="left" departSpeed="desired" depart="0" />
    <vehicle id="down_2" type="Car" route="down" departSpeed="desired" depart="1" />
    <vehicle id="right_3" type="Car" route="right" departSpeed="desired" depart="2" />
    <vehicle id="up_4" type="Car" route="up" departSpeed="desired" depart="2" />
    <vehicle id="up_5" type="Car" route="up" departSpeed="desired" depart="3" />
    <vehicle id="down_6" type="Car" route="down" departSpeed="desired" depart="4" />
    <vehicle id="right_7" type="Car" route="right" departSpeed="desired" depart="5" />
    <vehicle id="down_8" type="Car" route="down" departSpeed="desired" depart="5" />
    <vehicle id="left_9" type="Car" route="left" departSpeed="desired" depart="6" />
    <vehicle id="up_10" type="Car" route="up" departSpeed="desired" depart="7" />
    <vehicle id="left_11" type="Car" route="left" departSpeed="desired" depart="7" />
    <vehicle id="right_12" type="Car" route="right" departSpeed="desired" depart="8" />
    <vehicle id="up_13" type="Car" route="up" departSpeed="desired" depart="8" />
    <vehicle id="right_14" type="Car" route="right" departSpeed="desired" depart="9" />
    <vehicle id="right_15" type="Car" route="right" departSpeed="desired" depart="11" />
    <vehicle id="left_16" type="Car" route="left" departSpeed="desired" depart="11" />
    <vehicle id="right_17" type="Car" route="right" departSpeed="desired" depart="12" />
    <vehicle id="up_18" type="Car" route="up" departSpeed="desired" depart="12" />
    <vehicle id="up_19" type="Car" route="up" departSpeed="desired" depart="13" />
    <vehicle id="left_20" type="Car" route="left" departSpeed="desired" depart="13" />
    <vehicle id="up_21" type="Car" route="up" departSpeed="desired" depart="14" />
    <vehicle id="up_22" type="Car" route="up" departSpeed="desired" depart="15" />
    <vehicle id="up_23" type="Car" route="up" departSpeed="desired" depart="18" />
    <vehicle id="right_24" type="Car" route="right" departSpeed="desired" depart="19" />
    <vehicle id="left_25" type="Car" route="left" departSpeed="desired" depart="19" />
    <vehicle id="right_26" type="Car" route="right" departSpeed="desired" depart="20" />
    <vehicle id="up_27" type="Car" route="up" departSpeed="desired" depart="20" />
    <vehicle id="left_28" type="Car" route="left" departSpeed="desired" depart="20" />
    <vehicle id="left_29" type="Car" route="left" departSpeed="desired" depart="21" />
    <vehicle id="right_30" type="Car" route="right" departSpeed="desired" depart="22" />
    <vehicle id="right_31" type="Car" route="right" departSpeed="desired" depart="23" />
    <vehicle id="up_32" type="Car" route="up" departSpeed="desired" depart="23" />
    <vehicle id="left_33" type="Car" route="left" departSpeed="desired" depart="23" />
    <vehicle id="right_34" type="Car" route="right" departSpeed="desired" depart="24" />
    <vehicle id="right_35" type="Car" route="right" departSpeed="desired" depart="25" />
    <vehicle id="left_36" type="Car" route="left" departSpeed="desired" depart="25" />
    <vehicle id="down_37" type="Car" route="down" departSpeed="desired" depart="26" />
    <vehicle id="down_38" type="Car" route="down" departSpeed="desired" depart="28" />
    <vehicle id="up_39" type="Car" route="up" departSpeed="desired" depart="28" />
    <vehicle id="down_40" type="Car" route="down" departSpeed="desired" depart="29" />
    <vehicle id="left_41" type="Car" route="left" departSpeed="desired" depart="30" />
    <vehicle id="right_42" type="Car" route="right" departSpeed="desired" depart="36" />
    <vehicle id="up_43" type="Car" route="up" departSpeed="desired" depart="36" />
    <vehicle id="right_44" type="Car" route="right" departSpeed="desired" depart="37" />
    <vehicle id="down_45" type="Car" route="down" departSpeed="desired" depart="37" />
    <vehicle id="up_46" type="Car" route="up" departSpeed="desired" depart="37" />
    <vehicle id="down_47" type="Car" route="down" departSpeed="desired" depart="39" />
    <vehicle id="left_48" type="Car" route="left" departSpeed="desired" depart="39" />
    <vehicle id="down_49" type="Car" route="down" departSpeed="desired" depart="41" />
    <vehicle id="down_50" type="Car" route="down" departSpeed="desired" depart="42" />
    <vehicle id="up_51" type="Car" route="up" departSpeed="desired" depart="42" />
    <vehicle id="right_52" type="Car" route="right" departSpeed="desired" depart="44" />
    <vehicle id="left_53" type="Car" route="left" departSpeed="desired" depart="46" />
    <vehicle id="right_54" type="Car" route="right" departSpeed="desired" depart="47" />
    <vehicle id="up_55" type="Car" route="up" departSpeed="desired" depart="47" />
    <vehicle id="up_56" type="Car" route="up" departSpeed="desired" depart="48" />
    <vehicle id="left_57" type="Car" route="left" departSpeed="desired" depart="48" />
    <vehicle id="left_58" type="Car" route="left" departSpeed="desired" depart="49" />
    <vehicle id="down_59" type="Car" route="down" departSpeed="desired" depart="51" />
    <vehicle id="right_60" type="Car" route="right" departSpeed="desired" depart="52" />
    <vehicle id="up_61" type="Car" route="up" departSpeed="desired" depart="52" />
    <vehicle id="right_62" type="Car" route="right" departSpeed="desired" depart="53" />
    <vehicle id="right_63" type="Car" route="right" departSpeed="desired" depart="55" />
    <vehicle id="up_64" type="Car" route="up" departSpeed="desired" depart="57" />
    <vehicle id="left_65" type="Car" route="left" departSpeed="desired" depart="58" />
    <vehicle id="left_66" type="Car" route="left" departSpeed="desired" depart="59" />
    <vehicle id="down_67" type="Car" route="down" departSpeed="desired" depart="60" />
    <vehicle id="up_68" type="Car" route="up" departSpeed="desired" depart="60" />
    <vehicle id="right_69" type="Car" route="right" departSpeed="desired" depart="63" />
    <vehicle id="down_70" type="Car" route="down" departSpeed="desired" depart="65" />
    <vehicle id="right_71" type="Car" route="right" departSpeed="desired" depart="67" />
    <vehicle id="right_72" type="Car" route="right" departSpeed="desired" depart="68" />
    <vehicle id="down_73" type="Car" route="down" departSpeed="desired" depart="68" />
    <vehicle id="left_74" type="Car" route="left" departSpeed="desired" depart="69" />
    <vehicle id="up_75" type="Car" route="up" departSpeed="desired" depart="70" />
    <vehicle id="left_76" type="Car" route="left" departSpeed="desired" depart="70" />
    <vehicle id="right_77" type="Car" route="right" departSpeed="desired" depart="71" />
    <vehicle id="up_78" type="Car" route="up" departSpeed="desired" depart="72" />
    <vehicle id="left_79" type="Car" route="left" departSpeed="desired" depart="73" />
    <vehicle id="down_80" type="Car" route="down" departSpeed="desired" depart="74" />
    <vehicle id="up_81" type="Car" route="up" departSpeed="desired" depart="74" />
    <vehicle id="left_82" type="Car" route="left" departSpeed="desired" depart="75" />
    <vehicle id="right_83" type="Car" route="right" departSpeed="desired" depart="77" />
    <vehicle id="right_84" type="Car" route="right" departSpeed="desired" depart="78" />
    <vehicle id="left_85" type="Car" route="left" departSpeed="desired" depart="78" />
    <vehicle id="down_86" type="Car" route="down" departSpeed="desired" depart="79" />
    <vehicle id="right_87" type="Car" route="right" departSpeed="desired" depart="80" />
    <vehicle id="up_88" type="Car" route="up" departSpeed="desired" depart="80" />
    <vehicle id="down_89" type="Car" route="down" departSpeed="desired" depart="81" />
    <vehicle id="left_90" type="Car" route="left" departSpeed="desired" depart="82" />
    <vehicle id="up_91" type="Car" route="up" departSpeed="desired" depart="84" />
    <vehicle id="right_92" type="Car" route="right" departSpeed="desired" depart="85" />
    <vehicle id="up_93" type="Car" route="up" departSpeed="desired" depart="86" />
    <vehicle id="right_94" type="Car" route="right" departSpeed="desired" depart="87" />
    <vehicle id="right_95" type="Car" route="right" departSpeed="desired" depart="88" />
    <vehicle id="left_96" type="Car" route="left" departSpeed="desired" depart="88" />
    <vehicle id="down_97" type="Car" route="down" departSpeed="desired" depart="89" />
    <vehicle id="down_98" type="Car" route="down" departSpeed="desired" depart="90" />
    <vehicle id="left_99" type="Car" route="left" departSpeed="desired" depart="90" />
    <vehicle id="up_100" type="Car" route="up" departSpeed="desired" depart="91" />
    <vehicle id="left_101" type="Car" route="left" departSpeed="desired" depart="91" />
    <vehicle id="down_102" type="Car" route="down" departSpeed="desired" depart="93" />
    <vehicle id="down_103" type="Car" route="down" departSpeed="desired" depart="94" />
    <vehicle id="up_104" type="Car" route="up" departSpeed="desired" depart="94" />
    <vehicle id="down_105" type="Car" route="down" departSpeed="desired" depart="95" />
    <vehicle id="down_106" type="Car" route="down" departSpeed="desired" depart="96" />
    <vehicle id="up_107" type="Car" route="up" departSpeed="desired" depart="96" />
    <vehicle id="down_108" type="Car" route="down" departSpeed="desired" depart="99" />
    <vehicle id="right_109" type="Car" route="right" departSpeed="desired" depart="100" />
    <vehicle id="down_110" type="Car" route="down" departSpeed="desired" depart="100" />
    <vehicle id="up_111" type="Car" route="up" departSpeed="desired" depart="100" />
    <vehicle id="down_112" type="Car" route="down" departSpeed="desired" depart="104" />
    <vehicle id="left_113" type="Car" route="left" departSpeed="desired" depart="105" />
    <vehicle id="up_114" type="Car" route="up" departSpeed="desired" depart="106" />
    <vehicle id="right_115" type="Car" route="right" departSpeed="desired" depart="107" />
    <vehicle id="right_116" type="Car" route="right" departSpeed="desired" depart="108" />
    <vehicle id="down_117" type="Car" route="down" departSpeed="desired" depart="108" />
    <vehicle id="down_118" type="Car" route="down" departSpeed="desired" depart="109" />
    <vehicle id="up_119" type="Car" route="up" departSpeed="desired" depart="110" />
    <vehicle id="left_120" type="Car" route="left" departSpeed="desired" depart="111" />
    <vehicle id="down_121" type="Car" route="down" departSpeed="desired" depart="113" />
    <vehicle id="right_122" type="Car" route="right" departSpeed="desired" depart="114" />
    <vehicle id="down_123" type="Car" route="down" departSpeed="desired" depart="114" />
    <vehicle id="down_124" type="Car" route="down" departSpeed="desired" depart="115" />
    <vehicle id="up_125" type="Car" route="up" departSpeed="desired" depart="115" />
    <vehicle id="down_126" type="Car" route="down" departSpeed="desired" depart="116" />
    <vehicle id="up_127" type="Car" route="up" departSpeed="desired" depart="116" />
    <vehicle id="up_128" type="Car" route="up" departSpeed="desired" depart="117" />
    <vehicle id="up_129" type="Car" route="up" departSpeed="desired" depart="118" />
    <vehicle id="down_130" type="Car" route="down" departSpeed="desired" depart="120" />
    <vehicle id="left_131" type="Car" route="left" departSpeed="desired" depart="120" />
    <vehicle id="left_132" type="Car" route="left" departSpeed="desired" depart="121" />
    <vehicle id="down_133" type="Car" route="down" departSpeed="desired" depart="122" />
    <vehicle id="up_134" type="Car" route="up" departSpeed="desired" depart="122" />
    <vehicle id="right_135" type="Car" route="right" departSpeed="desired" depart="123" />
    <vehicle id="left_136" type="Car" route="left" departSpeed="desired" depart="124" />
    <vehicle id="down_137" type="Car" route="down" departSpeed="desired" depart="125" />
    <vehicle id="right_138" type="Car" route="right" departSpeed="desired" depart="127" />
    <vehicle id="down_139" type="Car" route="down" departSpeed="desired" depart="128" />
    <vehicle id="left_140" type="Car" route="left" departSpeed="desired" depart="128" />
    <vehicle id="up_141" type="Car" route="up" departSpeed="desired" depart="129" />
    <vehicle id="left_142" type="Car" route="left" departSpeed="desired" depart="130" />
    <vehicle id="up_143" type="Car" route="up" departSpeed="desired" depart="131" />
    <vehicle id="left_144" type="Car" route="left" departSpeed="desired" depart="131" />
    <vehicle id="right_145" type="Car" route="right" departSpeed="desired" depart="132" />
    <vehicle id="down_146" type="Car" route="down" departSpeed="desired" depart="132" />
    <vehicle id="left_147" type="Car" route="left" departSpeed="desired" depart="132" />
    <vehicle id="right_148" type="Car" route="right" departSpeed="desired" depart="133" />
    <vehicle id="up_149" type="Car" route="up" departSpeed="desired" depart="135" />
    <vehicle id="left_150" type="Car" route="left" departSpeed="desired" depart="135" />
    <vehicle id="right_151" type="Car" route="right" departSpeed="desired" depart="137" />
    <vehicle id="down_152" type="Car" route="down" departSpeed="desired" depart="137" />
    <vehicle id="left_153" type="Car" route="left" departSpeed="desired" depart="137" />
    <vehicle id="up_154" type="Car" route="up" departSpeed="desired" depart="138" />
    <vehicle id="right_155" type="Car" route="right" departSpeed="desired" depart="140" />
    <vehicle id="up_156" type="Car" route="up" departSpeed="desired" depart="142" />
    <vehicle id="left_157" type="Car" route="left" departSpeed="desired" depart="142" />
    <vehicle id="right_158" type="Car" route="right" departSpeed="desired" depart="143" />
    <vehicle id="left_159" type="Car" route="left" departSpeed="desired" depart="143" />
    <vehicle id="up_160" type="Car" route="up" departSpeed="desired" depart="145" />
    <vehicle id="left_161" type="Car" route="left" departSpeed="desired" depart="146" />
    <vehicle id="up_162" type="Car" route="up" departSpeed="desired" depart="148" />
    <vehicle id="left_163" type="Car" route="left" departSpeed="desired" depart="148" />
    <vehicle id="down_164" type="Car" route="down" departSpeed="desired" depart="149" />
    <vehicle id="up_165" type="Car" route="up" departSpeed="desired" depart="154" />
    <vehicle id="left_166" type="Car" route="left" departSpeed="desired" depart="154" />
    <vehicle id="down_167" type="Car" route="down" departSpeed="desired" depart="156" />
    <vehicle id="down_168" type="Car" route="down" departSpeed="desired" depart="158" />
    <vehicle id="left_169" type="Car" route="left" departSpeed="desired" depart="158" />
    <vehicle id="up_170" type="Car" route="up" departSpeed="desired" depart="159" />
    <vehicle id="down_171" type="Car" route="down" departSpeed="desired" depart="161" />
    <vehicle id="left_172" type="Car" route="left" departSpeed="desired" depart="163" />
    <vehicle id="left_173" type="Car" route="left" departSpeed="desired" depart="164" />
    <vehicle id="right_174" type="Car" route="right" departSpeed="desired" depart="170" />
    <vehicle id="down_175" type="Car" route="down" departSpeed="desired" depart="171" />
    <vehicle id="up_176" type="Car" route="up" departSpeed="desired" depart="172" />
    <vehicle id="down_177" type="Car" route="down" departSpeed="desired" depart="173" />
    <vehicle id="down_178" type="Car" route="down" departSpeed="desired" depart="174" />
    <vehicle id="up_179" type="Car" route="up" departSpeed="desired" depart="175" />
    <vehicle id="right_180" type="Car" route="right" departSpeed="desired" depart="178" />
    <vehicle id="left_181" type="Car" route="left" departSpeed="desired" depart="178" />
    <vehicle id="left_182" type="Car" route="left" departSpeed="desired" depart="179" />
    <vehicle id="up_183" type="Car" route="up" departSpeed="desired" depart="181" />
    <vehicle id="right_184" type="Car" route="right" departSpeed="desired" depart="182" />
    <vehicle id="down_185" type="Car" route="down" departSpeed="desired" depart="182" />
    <vehicle id="up_186" type="Car" route="up" departSpeed="desired" depart="184" />
    <vehicle id="up_187" type="Car" route="up" departSpeed="desired" depart="185" />
    <vehicle id="left_188" type="Car" route="left" departSpeed="desired" depart="185" />
    <vehicle id="down_189" type="Car" route="down" departSpeed="desired" depart="186" />
    <vehicle id="left_190" type="Car" route="left" departSpeed="desired" depart="187" />
    <vehicle id="left_191" type="Car" route="left" departSpeed="desired" depart="188" />
    <vehicle id="right_192" type="Car" route="right" departSpeed="desired" depart="189" />
    <vehicle id="up_193" type="Car" route="up" departSpeed="desired" depart="192" />
    <vehicle id="up_194" type="Car" route="up" departSpeed="desired" depart="194" />
    <vehicle id="down_195" type="Car" route="down" departSpeed="desired" depart="195" />
    <vehicle id="left_196" type="Car" route="left" departSpeed="desired" depart="195" />
    <vehicle id="down_197" type="Car" route="down" departSpeed="desired" depart="197" />
    <vehicle id="up_198" type="Car" route="up" departSpeed="desired" depart="198" />
    <vehicle id="left_199" type="Car" route="left" departSpeed="desired" depart="198" />
    <vehicle id="left_200" type="Car" route="left" departSpeed="desired" depart="199" />
    <vehicle id="up_201" type="Car" route="up" departSpeed="desired" depart="201" />
    <vehicle id="right_202" type="Car" route="right" departSpeed="desired" depart="202" />
    <vehicle id="down_203" type="Car" route="down" departSpeed="desired" depart="202" />
    <vehicle id="right_204" type="Car" route="right" departSpeed="desired" depart="205" />
    <vehicle id="up_205" type="Car" route="up" departSpeed="desired" depart="205" />
    <vehicle id="down_206" type="Car" route="down" departSpeed="desired" depart="206" />
    <vehicle id="right_207" type="Car" route="right" departSpeed="desired" depart="211" />
    <vehicle id="down_208" type="Car" route="down" departSpeed="desired" depart="211" />
    <vehicle id="up_209" type="Car" route="up" departSpeed="desired" depart="211" />
    <vehicle id="right_210" type="Car" route="right" departSpeed="desired" depart="215" />
    <vehicle id="left_211" type="Car" route="left" departSpeed="desired" depart="215" />
    <vehicle id="left_212" type="Car" route="left" departSpeed="desired" depart="216" />
    <vehicle id="right_213" type="Car" route="right" departSpeed="desired" depart="219" />
    <vehicle id="up_214" type="Car" route="up" departSpeed="desired" depart="219" />
    <vehicle id="right_215" type="Car" route="right" departSpeed="desired" depart="220" />
    <vehicle id="down_216" type="Car" route="down" departSpeed="desired" depart="220" />
    <vehicle id="right_217" type="Car" route="right" departSpeed="desired" depart="221" />
    <vehicle id="down_218" type="Car" route="down" departSpeed="desired" depart="222" />
    <vehicle id="up_219" type="Car" route="up" departSpeed="desired" depart="223" />
    <vehicle id="left_220" type="Car" route="left" departSpeed="desired" depart="223" />
    <vehicle id="right_221" type="Car" route="right" departSpeed="desired" depart="224" />
    <vehicle id="down_222" type="Car" route="down" departSpeed="desired" depart="225" />
    <vehicle id="left_223" type="Car" route="left" departSpeed="desired" depart="225" />
    <vehicle id="right_224" type="Car" route="right" departSpeed="desired" depart="226" />
    <vehicle id="left_225" type="Car" route="left" departSpeed="desired" depart="226" />
    <vehicle id="left_226" type="Car" route="left" departSpeed="desired" depart="227" />
    <vehicle id="left_227" type="Car" route="left" departSpeed="desired" depart="229" />
    <vehicle id="right_228" type="Car" route="right" departSpeed="desired" depart="230" />
    <vehicle id="left_229" type="Car" route="left" departSpeed="desired" depart="231" />
    <vehicle id="down_230" type="Car" route="down" departSpeed="desired" depart="235" />
    <vehicle id="up_231" type="Car" route="up" departSpeed="desired" depart="235" />
    <vehicle id="left_232" type="Car" route="left" departSpeed="desired" depart="235" />
    <vehicle id="left_233" type="Car" route="left" departSpeed="desired" depart="238" />
    <vehicle id="up_234" type="Car" route="up" departSpeed="desired" depart="240" />
    <vehicle id="up_235" type="Car" route="up" departSpeed="desired" depart="241" />
    <vehicle id="up_236" type="Car" route="up" departSpeed="desired" depart="242" />
    <vehicle id="left_237" type="Car" route="left" departSpeed="desired" depart="242" />
    <vehicle id="down_238" type="Car" route="down" departSpeed="desired" depart="244" />
    <vehicle id="left_239" type="Car" route="left" departSpeed="desired" depart="244" />
    <vehicle id="down_240" type="Car" route="down" departSpeed="desired" depart="245" />
    <vehicle id="up_241" type="Car" route="up" departSpeed="desired" depart="245" />
    <vehicle id="right_242" type="Car" route="right" departSpeed="desired" depart="246" />
    <vehicle id="up_243" type="Car" route="up" departSpeed="desired" depart="246" />
    <vehicle id="up_244" type="Car" route="up" departSpeed="desired" depart="247" />
    <vehicle id="up_245" type="Car" route="up" departSpeed="desired" depart="248" />
    <vehicle id="down_246" type="Car" route="down" departSpeed="desired" depart="250" />
    <vehicle id="down_247" type="Car" route="down" departSpeed="desired" depart="251" />
    <vehicle id="left_248" type="Car" route="left" departSpeed="desired" depart="254" />
    <vehicle id="up_249" type="Car" route="up" departSpeed="desired" depart="255" />
    <vehicle id="left_250" type="Car" route="left" departSpeed="desired" depart="255" />
    <vehicle id="left_251" type="Car" route="left" departSpeed="desired" depart="256" />
    <vehicle id="up_252" type="Car" route="up" departSpeed="desired" depart="258" />
    <vehicle id="up_253" type="Car" route="up" departSpeed="desired" depart="259" />
    <vehicle id="down_254" type="Car" route="down" departSpeed="desired" depart="263" />
    <vehicle id="up_255" type="Car" route="up" departSpeed="desired" depart="263" />
    <vehicle id="down_256" type="Car" route="down" departSpeed="desired" depart="264" />
    <vehicle id="up_257" type="Car" route="up" departSpeed="desired" depart="264" />
    <vehicle id="right_258" type="Car" route="right" departSpeed="desired" depart="265" />
    <vehicle id="down_259" type="Car" route="down" departSpeed="desired" depart="265" />
    <vehicle id="up_260" type="Car" route="up" departSpeed="desired" depart="265" />
    <vehicle id="down_261" type="Car" route="down" departSpeed="desired" depart="266" />
    <vehicle id="down_262" type="Car" route="down" departSpeed="desired" depart="268" />
    <vehicle id="up_263" type="Car" route="up" departSpeed="desired" depart="268" />
    <vehicle id="left_264" type="Car" route="left" departSpeed="desired" depart="268" />
    <vehicle id="down_265" type="Car" route="down" departSpeed="desired" depart="269" />
    <vehicle id="up_266" type="Car" route="up" departSpeed="desired" depart="269" />
    <vehicle id="left_267" type="Car" route="left" departSpeed="desired" depart="270" />
    <vehicle id="down_268" type="Car" route="down" departSpeed="desired" depart="271" />
    <vehicle id="right_269" type="Car" route="right" departSpeed="desired" depart="273" />
    <vehicle id="left_270" type="Car" route="left" departSpeed="desired" depart="273" />
    <vehicle id="down_271" type="Car" route="down" departSpeed="desired" depart="275" />
    <vehicle id="up_272" type="Car" route="up" departSpeed="desired" depart="277" />
    <vehicle id="down_273" type="Car" route="down" departSpeed="desired" depart="278" />
    <vehicle id="up_274" type="Car" route="up" departSpeed="desired" depart="278" />
    <vehicle id="right_275" type="Car" route="right" departSpeed="desired" depart="279" />
    <vehicle id="down_276" type="Car" route="down" departSpeed="desired" depart="279" />
    <vehicle id="up_277" type="Car" route="up" departSpeed="desired" depart="279" />
    <vehicle id="right_278" type="Car" route="right" departSpeed="desired" depart="281" />
    <vehicle id="up_279" type="Car" route="up" departSpeed="desired" depart="281" />
    <vehicle id="left_280" type="Car" route="left" departSpeed="desired" depart="281" />
    <vehicle id="up_281" type="Car" route="up" departSpeed="desired" depart="282" />
    <vehicle id="up_282" type="Car" route="up" departSpeed="desired" depart="283" />
    <vehicle id="right_283" type="Car" route="right" departSpeed="desired" depart="284" />
    <vehicle id="up_284" type="Car" route="up" departSpeed="desired" depart="284" />
    <vehicle id="left_285" type="Car" route="left" departSpeed="desired" depart="284" />
    <vehicle id="right_286" type="Car" route="right" departSpeed="desired" depart="285" />
    <vehicle id="right_287" type="Car" route="right" departSpeed="desired" depart="286" />
    <vehicle id="up_288" type="Car" route="up" departSpeed="desired" depart="286" />
    <vehicle id="left_289" type="Car" route="left" departSpeed="desired" depart="287" />
    <vehicle id="right_290" type="Car" route="right" departSpeed="desired" depart="291" />
    <vehicle id="down_291" type="Car" route="down" departSpeed="desired" depart="291" />
    <vehicle id="up_292" type="Car" route="up" departSpeed="desired" depart="291" />
    <vehicle id="left_293" type="Car" route="left" departSpeed="desired" depart="293" />
    <vehicle id="left_294" type="Car" route="left" departSpeed="desired" depart="294" />
    <vehicle id="right_295" type="Car" route="right" departSpeed="desired" depart="295" />
    <vehicle id="left_296" type="Car" route="left" departSpeed="desired" depart="295" />
    <vehicle id="down_297" type="Car" route="down" departSpeed="desired" depart="296" />
    <vehicle id="up_298" type="Car" route="up" departSpeed="desired" depart="296" />
    <vehicle id="down_299" type="Car" route="down" departSpeed="desired" depart="298" />
    <vehicle id="up_300" type="Car" route="up" departSpeed="desired" depart="298" />
    <vehicle id="down_301" type="Car" route="down" departSpeed="desired" depart="299" />
    <vehicle id="up_302" type="Car" route="up" departSpeed="desired" depart="300" />
    <vehicle id="up_303" type="Car" route="up" departSpeed="desired" depart="301" />
    <vehicle id="down_304" type="Car" route="down" departSpeed="desired" depart="303" />
    <vehicle id="left_305" type="Car" route="left" departSpeed="desired" depart="303" />
    <vehicle id="left_306" type="Car" route="left" departSpeed="desired" depart="304" />
    <vehicle id="left_307" type="Car" route="left" departSpeed="desired" depart="305" />
    <vehicle id="right_308" type="Car" route="right" departSpeed="desired" depart="306" />
    <vehicle id="left_309" type="Car" route="left" departSpeed="desired" depart="306" />
    <vehicle id="down_310" type="Car" route="down" departSpeed="desired" depart="308" />
    <vehicle id="up_311" type="Car" route="up" departSpeed="desired" depart="310" />
    <vehicle id="left_312" type="Car" route="left" departSpeed="desired" depart="310" />
    <vehicle id="right_313" type="Car" route="right" departSpeed="desired" depart="311" />
    <vehicle id="up_314" type="Car" route="up" departSpeed="desired" depart="311" />
    <vehicle id="right_315" type="Car" route="right" departSpeed="desired" depart="313" />
    <vehicle id="left_316" type="Car" route="left" departSpeed="desired" depart="313" />
    <vehicle id="right_317" type="Car" route="right" departSpeed="desired" depart="314" />
    <vehicle id="left_318" type="Car" route="left" departSpeed="desired" depart="314" />
    <vehicle id="right_319" type="Car" route="right" departSpeed="desired" depart="316" />
    <vehicle id="up_320" type="Car" route="up" departSpeed="desired" depart="316" />
    <vehicle id="right_321" type="Car" route="right" departSpeed="desired" depart="317" />
    <vehicle id="up_322" type="Car" route="up" departSpeed="desired" depart="317" />
    <vehicle id="down_323" type="Car" route="down" departSpeed="desired" depart="318" />
    <vehicle id="up_324" type="Car" route="up" departSpeed="desired" depart="318" />
    <vehicle id="up_325" type="Car" route="up" departSpeed="desired" depart="321" />
    <vehicle id="down_326" type="Car" route="down" departSpeed="desired" depart="322" />
    <vehicle id="up_327" type="Car" route="up" departSpeed="desired" depart="322" />
    <vehicle id="right_328" type="Car" route="right" departSpeed="desired" depart="323" />
    <vehicle id="up_329" type="Car" route="up" departSpeed="desired" depart="323" />
    <vehicle id="left_330" type="Car" route="left" departSpeed="desired" depart="323" />
    <vehicle id="right_331" type="Car" route="right" departSpeed="desired" depart="324" />
    <vehicle id="right_332" type="Car" route="right" departSpeed="desired" depart="325" />
    <vehicle id="left_333" type="Car" route="left" departSpeed="desired" depart="326" />
    <vehicle id="right_334" type="Car" route="right" departSpeed="desired" depart="327" />
    <vehicle id="right_335" type="Car" route="right" departSpeed="desired" depart="329" />
    <vehicle id="right_336" type="Car" route="right" departSpeed="desired" depart="330" />
    <vehicle id="down_337" type="Car" route="down" departSpeed="desired" depart="331" />